Version 4
SHEET 1 880 680
WIRE -208 48 -208 -32
WIRE 16 48 -208 48
WIRE 336 64 80 64
WIRE -208 80 -208 48
WIRE 16 80 -208 80
WIRE -208 144 -208 80
WIRE 336 144 336 64
WIRE 336 144 320 144
WIRE 528 144 336 144
WIRE -208 272 -208 224
WIRE -128 272 -128 -32
WIRE -128 272 -208 272
WIRE -208 304 -208 272
FLAG -208 304 0
FLAG 528 144 vout
SYMBOL voltage -208 128 R0
WINDOW 123 0 0 Left 0
WINDOW 39 0 0 Left 0
SYMATTR InstName vdd
SYMATTR Value 5
SYMBOL sram_16x2_pand2 48 64 R0
SYMATTR InstName X1
TEXT -240 328 Left 2 !.tran 1
