Version 4
SHEET 1 880 680
WIRE 96 144 32 144
WIRE 224 144 160 144
FLAG 32 144 A
IOPIN 32 144 In
FLAG 224 144 Z
IOPIN 224 144 Out
SYMBOL sram_16x2_pinv_9 128 144 R0
SYMATTR InstName X1
