Version 4
SHEET 1 880 680
WIRE 64 112 16 112
WIRE 160 128 128 128
WIRE 272 128 224 128
WIRE 64 144 16 144
FLAG 16 112 A
IOPIN 16 112 In
FLAG 16 144 B
IOPIN 16 144 In
FLAG 272 128 Z
IOPIN 272 128 Out
SYMBOL sram_16x2_pnand2_0 96 128 R0
SYMATTR InstName X1
SYMBOL sram_16x2_pdriver 192 128 R0
SYMATTR InstName X2
