Version 4
SHEET 1 880 680
WIRE 32 144 0 144
WIRE 144 144 96 144
WIRE 256 144 208 144
WIRE 368 144 320 144
WIRE 464 144 432 144
FLAG 0 144 A
IOPIN 0 144 In
FLAG 464 144 Z
IOPIN 464 144 Out
SYMBOL sram_16x2_pinv_5 64 144 R0
SYMATTR InstName Xbuf_inv1
SYMBOL sram_16x2_pinv_6 176 144 R0
SYMATTR InstName Xbuf_inv2
SYMBOL sram_16x2_pinv_7 288 144 R0
SYMATTR InstName Xbuf_inv3
SYMBOL sram_16x2_pinv_8 400 144 R0
SYMATTR InstName Xbuf_inv4
