Version 4
SHEET 1 880 680
WIRE 64 112 -16 112
WIRE 112 112 64 112
WIRE 320 112 224 112
WIRE 112 144 16 144
WIRE 320 144 224 144
WIRE 64 240 64 112
WIRE 112 240 64 240
WIRE 320 240 224 240
WIRE 112 272 16 272
WIRE 320 272 224 272
FLAG 16 144 din_0
IOPIN 16 144 In
FLAG 16 272 din_1
IOPIN 16 272 In
FLAG -16 112 clk
IOPIN -16 112 In
FLAG 320 112 dout_0
IOPIN 320 112 Out
FLAG 320 240 dout_1
IOPIN 320 240 Out
FLAG 320 144 dout_bar_0
IOPIN 320 144 Out
FLAG 320 272 dout_bar_1
IOPIN 320 272 Out
SYMBOL sram_16x2_dff_buf_0 160 128 R0
SYMATTR InstName Xdff_r0_c0
SYMBOL sram_16x2_dff_buf_0 160 256 R0
SYMATTR InstName Xdff_r1_c0
