Version 4
SHEET 1 880 680
WIRE 80 16 64 16
WIRE 192 16 80 16
WIRE 192 64 192 16
WIRE 112 96 0 96
WIRE 384 96 272 96
WIRE 80 160 80 16
WIRE 192 160 80 160
WIRE 192 176 192 160
WIRE 112 208 0 208
WIRE 384 208 272 208
WIRE 80 272 80 160
WIRE 192 272 80 272
WIRE 192 288 192 272
WIRE 112 320 0 320
WIRE 384 320 272 320
FLAG 64 16 en_bar
IOPIN 64 16 In
FLAG 0 96 bl_0
IOPIN 0 96 Out
FLAG 0 208 bl_1
IOPIN 0 208 Out
FLAG 0 320 bl_2
IOPIN 0 320 Out
FLAG 384 96 br_0
IOPIN 384 96 Out
FLAG 384 208 br_1
IOPIN 384 208 Out
FLAG 384 320 br_2
IOPIN 384 320 Out
SYMBOL sram_16x2_precharge_0 192 96 R0
SYMATTR InstName X1
SYMBOL sram_16x2_precharge_0 192 208 R0
SYMATTR InstName X2
SYMBOL sram_16x2_precharge_0 192 320 R0
SYMATTR InstName X3
