Version 4
SHEET 1 880 828
WIRE -144 48 -144 -128
WIRE -240 80 -320 80
WIRE 16 80 -48 80
WIRE -304 112 -320 112
WIRE -240 112 -304 112
WIRE -32 112 -48 112
WIRE 16 112 -32 112
WIRE -272 144 -320 144
WIRE -240 144 -272 144
WIRE 0 144 -48 144
WIRE 16 144 0 144
WIRE -336 320 -368 320
WIRE -304 320 -304 112
WIRE -304 320 -336 320
WIRE 352 320 -304 320
WIRE -560 336 -640 336
WIRE -304 352 -368 352
WIRE -32 352 -32 112
WIRE -32 352 -304 352
WIRE 352 352 -32 352
WIRE -560 368 -640 368
WIRE -272 384 -272 144
WIRE -272 384 -368 384
WIRE 32 384 -272 384
WIRE 352 384 32 384
WIRE -560 400 -640 400
WIRE 0 416 0 144
WIRE 0 416 -368 416
WIRE 64 416 0 416
WIRE 352 416 64 416
WIRE -144 464 -640 464
WIRE -144 512 -144 464
WIRE -336 528 -336 320
WIRE -240 528 -336 528
WIRE 32 528 32 384
WIRE 32 528 -48 528
WIRE -304 560 -304 352
WIRE -240 560 -304 560
WIRE 64 560 64 416
WIRE 64 560 -48 560
WIRE -192 688 -192 608
WIRE -96 688 -96 608
FLAG -320 80 rbl_bl
IOPIN -320 80 BiDir
FLAG 16 80 rbl_br
IOPIN 16 80 BiDir
FLAG -320 112 bl_0
IOPIN -320 112 BiDir
FLAG -320 144 bl_1
IOPIN -320 144 BiDir
FLAG 16 112 br_0
IOPIN 16 112 BiDir
FLAG 16 144 br_1
IOPIN 16 144 BiDir
FLAG -144 -128 p_en_bar
IOPIN -144 -128 In
FLAG -640 336 din_0
IOPIN -640 336 In
FLAG -640 368 din_1
IOPIN -640 368 In
FLAG -640 400 w_en
IOPIN -640 400 In
FLAG -192 688 dout_0
IOPIN -192 688 Out
FLAG -96 688 dout_1
IOPIN -96 688 Out
FLAG -640 464 s_en
IOPIN -640 464 In
SYMBOL sram_16x2_precharge_array -144 144 R0
SYMATTR InstName Xprecharge_array0
SYMBOL sram_16x2_sense_amp_array -144 592 R0
SYMATTR InstName Xsense_amp_array0
SYMBOL sram_16x2_write_driver_array -464 368 R0
SYMATTR InstName Xwrite_driver_array0
