Version 4
SHEET 1 1784 1096
WIRE 864 -288 704 -288
WIRE -48 -272 -144 -272
WIRE 864 -256 768 -256
WIRE -48 -240 -144 -240
WIRE 864 -224 768 -224
WIRE -48 -208 -144 -208
WIRE 864 -192 768 -192
WIRE -48 -176 -144 -176
WIRE 864 -160 768 -160
WIRE -48 -144 -144 -144
WIRE 864 -128 768 -128
WIRE -48 -112 -144 -112
WIRE 384 -96 304 -96
WIRE 864 -96 768 -96
WIRE -48 -80 -144 -80
WIRE 384 -64 304 -64
WIRE 864 -64 768 -64
WIRE -48 -48 -144 -48
WIRE 384 -32 304 -32
WIRE 864 -32 768 -32
WIRE -48 -16 -144 -16
WIRE 1200 -16 1104 -16
WIRE 384 0 304 0
WIRE 864 0 768 0
WIRE -48 16 -144 16
WIRE 1200 16 1104 16
WIRE 384 32 304 32
WIRE 864 32 768 32
WIRE -48 48 -144 48
WIRE 384 64 304 64
WIRE 864 64 768 64
WIRE -48 80 -144 80
WIRE 864 96 768 96
WIRE -48 112 -144 112
WIRE 864 128 768 128
WIRE -48 144 -144 144
WIRE 864 160 768 160
WIRE -48 176 -144 176
WIRE 864 192 768 192
WIRE -48 208 -144 208
WIRE 864 224 768 224
WIRE -48 240 -144 240
WIRE 864 256 768 256
WIRE 864 288 704 288
WIRE 128 368 128 320
WIRE -16 416 -128 416
WIRE 16 416 -16 416
WIRE 272 416 240 416
WIRE 400 416 272 416
WIRE -48 448 -128 448
WIRE 16 448 -48 448
WIRE 304 448 240 448
WIRE 400 448 304 448
WIRE -80 480 -128 480
WIRE 16 480 -80 480
WIRE 336 480 240 480
WIRE 400 480 336 480
WIRE 864 480 704 480
WIRE 864 512 768 512
WIRE 864 544 768 544
WIRE 864 576 768 576
WIRE 128 592 128 544
WIRE 864 608 768 608
WIRE -16 640 -16 416
WIRE 16 640 -16 640
WIRE 272 640 272 416
WIRE 272 640 240 640
WIRE 864 640 768 640
WIRE -48 672 -48 448
WIRE 16 672 -48 672
WIRE 304 672 304 448
WIRE 304 672 240 672
WIRE 864 672 768 672
WIRE -80 704 -80 480
WIRE 16 704 -80 704
WIRE 336 704 336 480
WIRE 336 704 240 704
WIRE 864 704 768 704
WIRE 864 736 768 736
WIRE 1216 752 1104 752
WIRE 864 768 768 768
WIRE 1216 784 1104 784
WIRE 864 800 768 800
WIRE 864 832 768 832
WIRE 864 864 768 864
WIRE 864 896 768 896
WIRE 864 928 768 928
WIRE 864 960 768 960
WIRE 864 992 768 992
WIRE 864 1024 768 1024
WIRE 864 1056 704 1056
FLAG 384 32 rbl_bl_0_0
IOPIN 384 32 BiDir
FLAG 384 64 rbl_br_0_0
IOPIN 384 64 BiDir
FLAG 384 -96 bl_0_0
IOPIN 384 -96 BiDir
FLAG 384 -32 br_0_0
IOPIN 384 -32 BiDir
FLAG 384 -64 bl_0_1
IOPIN 384 -64 BiDir
FLAG 384 0 br_0_1
IOPIN 384 0 BiDir
FLAG -144 -240 wl_0_0
IOPIN -144 -240 In
FLAG -144 -208 wl_0_1
IOPIN -144 -208 In
FLAG -144 -176 wl_0_2
IOPIN -144 -176 In
FLAG -144 -144 wl_0_3
IOPIN -144 -144 In
FLAG -144 -112 wl_0_4
IOPIN -144 -112 In
FLAG -144 -80 wl_0_5
IOPIN -144 -80 In
FLAG -144 -48 wl_0_6
IOPIN -144 -48 In
FLAG -144 -16 wl_0_7
IOPIN -144 -16 In
FLAG -144 16 wl_0_8
IOPIN -144 16 In
FLAG -144 48 wl_0_9
IOPIN -144 48 In
FLAG -144 80 wl_0_10
IOPIN -144 80 In
FLAG -144 112 wl_0_11
IOPIN -144 112 In
FLAG -144 144 wl_0_12
IOPIN -144 144 In
FLAG -144 176 wl_0_13
IOPIN -144 176 In
FLAG -144 208 wl_0_14
IOPIN -144 208 In
FLAG -144 240 wl_0_15
IOPIN -144 240 In
FLAG -144 -272 rbl_wl_0_0
IOPIN -144 -272 In
FLAG -128 416 rbl_bl_0_0
IOPIN -128 416 BiDir
FLAG 400 416 rbl_br_0_0
IOPIN 400 416 BiDir
FLAG -128 448 bl_0_0
IOPIN -128 448 BiDir
FLAG 400 448 br_0_0
IOPIN 400 448 BiDir
FLAG -128 480 bl_0_1
IOPIN -128 480 BiDir
FLAG 400 480 br_0_1
IOPIN 400 480 BiDir
FLAG 1200 -16 dummy_left_bl_0_0
FLAG 1200 16 dummy_left_br_0_0
FLAG 704 -288 0
FLAG 768 -256 rbl_wl_0_0
IOPIN 768 -256 In
FLAG 768 -224 wl_0_0
IOPIN 768 -224 In
FLAG 768 -192 wl_0_1
IOPIN 768 -192 In
FLAG 768 -160 wl_0_2
IOPIN 768 -160 In
FLAG 768 -128 wl_0_3
IOPIN 768 -128 In
FLAG 768 -96 wl_0_4
IOPIN 768 -96 In
FLAG 768 -64 wl_0_5
IOPIN 768 -64 In
FLAG 768 -32 wl_0_6
IOPIN 768 -32 In
FLAG 768 0 wl_0_7
IOPIN 768 0 In
FLAG 768 32 wl_0_8
IOPIN 768 32 In
FLAG 768 64 wl_0_9
IOPIN 768 64 In
FLAG 768 96 wl_0_10
IOPIN 768 96 In
FLAG 768 128 wl_0_11
IOPIN 768 128 In
FLAG 768 160 wl_0_12
IOPIN 768 160 In
FLAG 768 192 wl_0_13
IOPIN 768 192 In
FLAG 768 224 wl_0_14
IOPIN 768 224 In
FLAG 768 256 wl_0_15
IOPIN 768 256 In
FLAG 704 288 0
FLAG 1216 752 dummy_right_bl_0_0
FLAG 1216 784 dummy_right_br_0_0
FLAG 704 480 0
FLAG 768 512 rbl_wl_0_0
IOPIN 768 512 In
FLAG 768 544 wl_0_0
IOPIN 768 544 In
FLAG 768 576 wl_0_1
IOPIN 768 576 In
FLAG 768 608 wl_0_2
IOPIN 768 608 In
FLAG 768 640 wl_0_3
IOPIN 768 640 In
FLAG 768 672 wl_0_4
IOPIN 768 672 In
FLAG 768 704 wl_0_5
IOPIN 768 704 In
FLAG 768 736 wl_0_6
IOPIN 768 736 In
FLAG 768 768 wl_0_7
IOPIN 768 768 In
FLAG 768 800 wl_0_8
IOPIN 768 800 In
FLAG 768 832 wl_0_9
IOPIN 768 832 In
FLAG 768 864 wl_0_10
IOPIN 768 864 In
FLAG 768 896 wl_0_11
IOPIN 768 896 In
FLAG 768 928 wl_0_12
IOPIN 768 928 In
FLAG 768 960 wl_0_13
IOPIN 768 960 In
FLAG 768 992 wl_0_14
IOPIN 768 992 In
FLAG 768 1024 wl_0_15
IOPIN 768 1024 In
FLAG 704 1056 0
FLAG 128 320 0
FLAG 128 544 0
SYMBOL sram_16x2_replica_bitcell_array 128 -16 R0
SYMATTR InstName Xreplica_bitcell_array
SYMBOL sram_16x2_dummy_array_1 128 448 R0
SYMATTR InstName Xdummy_row_bot
SYMBOL sram_16x2_dummy_array_0 128 672 R0
SYMATTR InstName Xdummy_row_top
SYMBOL sram_16x2_dummy_array_2 976 0 R0
SYMATTR InstName Xdummy_col_left
SYMBOL sram_16x2_dummy_array_3 976 768 R0
SYMATTR InstName Xdummy_col_right
