Version 4
SHEET 1 880 680
WIRE 64 64 48 64
WIRE 128 128 48 128
WIRE 320 128 240 128
WIRE 64 160 64 64
WIRE 128 160 64 160
WIRE 320 160 240 160
WIRE 128 256 48 256
WIRE 320 256 240 256
WIRE 64 288 64 160
WIRE 128 288 64 288
WIRE 320 288 240 288
FLAG 48 64 en
IOPIN 48 64 In
FLAG 48 128 data_0
IOPIN 48 128 In
FLAG 48 256 data_1
IOPIN 48 256 In
FLAG 320 128 bl_0
IOPIN 320 128 Out
FLAG 320 256 bl_1
IOPIN 320 256 Out
FLAG 320 160 br_0
IOPIN 320 160 Out
FLAG 320 288 br_1
IOPIN 320 288 Out
SYMBOL write_driver 176 144 R0
SYMATTR InstName X1
SYMBOL write_driver 176 272 R0
SYMATTR InstName X2
