Version 4
SHEET 1 880 984
WIRE 16 -16 -32 -16
WIRE 512 -16 16 -16
WIRE 64 112 -32 112
WIRE 560 112 464 112
WIRE 208 128 128 128
WIRE 704 128 624 128
WIRE 16 144 16 -16
WIRE 64 144 16 144
WIRE 512 144 512 -16
WIRE 560 144 512 144
WIRE 64 224 -32 224
WIRE 560 224 464 224
WIRE 208 240 128 240
WIRE 704 240 624 240
WIRE 16 256 16 144
WIRE 64 256 16 256
WIRE 512 256 512 144
WIRE 560 256 512 256
WIRE 64 336 -32 336
WIRE 560 336 464 336
WIRE 208 352 128 352
WIRE 704 352 624 352
WIRE 16 368 16 256
WIRE 64 368 16 368
WIRE 512 368 512 256
WIRE 560 368 512 368
WIRE 64 448 -32 448
WIRE 560 448 464 448
WIRE 208 464 128 464
WIRE 704 464 624 464
WIRE 16 480 16 368
WIRE 64 480 16 480
WIRE 512 480 512 368
WIRE 560 480 512 480
WIRE 64 560 -32 560
WIRE 560 560 464 560
WIRE 208 576 128 576
WIRE 704 576 624 576
WIRE 16 592 16 480
WIRE 64 592 16 592
WIRE 512 592 512 480
WIRE 560 592 512 592
WIRE 64 672 -32 672
WIRE 560 672 464 672
WIRE 208 688 128 688
WIRE 704 688 624 688
WIRE 16 704 16 592
WIRE 64 704 16 704
WIRE 512 704 512 592
WIRE 560 704 512 704
WIRE 64 784 -32 784
WIRE 560 784 464 784
WIRE 208 800 128 800
WIRE 704 800 624 800
WIRE 16 816 16 704
WIRE 64 816 16 816
WIRE 512 816 512 704
WIRE 560 816 512 816
WIRE 64 896 -32 896
WIRE 560 896 464 896
WIRE 208 912 128 912
WIRE 704 912 624 912
WIRE 16 928 16 816
WIRE 64 928 16 928
WIRE 512 928 512 816
WIRE 560 928 512 928
FLAG -32 112 in_0
IOPIN -32 112 In
FLAG 208 128 wl_0
IOPIN 208 128 Out
FLAG -32 224 in_1
IOPIN -32 224 In
FLAG 208 240 wl_1
IOPIN 208 240 Out
FLAG -32 336 in_2
IOPIN -32 336 In
FLAG 208 352 wl_2
IOPIN 208 352 Out
FLAG -32 448 in_3
IOPIN -32 448 In
FLAG 208 464 wl_3
IOPIN 208 464 Out
FLAG -32 560 in_4
IOPIN -32 560 In
FLAG 208 576 wl_4
IOPIN 208 576 Out
FLAG -32 672 in_5
IOPIN -32 672 In
FLAG 208 688 wl_5
IOPIN 208 688 Out
FLAG -32 784 in_6
IOPIN -32 784 In
FLAG 208 800 wl_6
IOPIN 208 800 Out
FLAG -32 896 in_7
IOPIN -32 896 In
FLAG 208 912 wl_7
IOPIN 208 912 Out
FLAG 464 112 in_8
IOPIN 464 112 In
FLAG 704 128 wl_8
IOPIN 704 128 Out
FLAG 464 224 in_9
IOPIN 464 224 In
FLAG 704 240 wl_9
IOPIN 704 240 Out
FLAG 464 336 in_10
IOPIN 464 336 In
FLAG 704 352 wl_10
IOPIN 704 352 Out
FLAG 464 448 in_11
IOPIN 464 448 In
FLAG 704 464 wl_11
IOPIN 704 464 Out
FLAG 464 560 in_12
IOPIN 464 560 In
FLAG 704 576 wl_12
IOPIN 704 576 Out
FLAG 464 672 in_13
IOPIN 464 672 In
FLAG 704 688 wl_13
IOPIN 704 688 Out
FLAG 464 784 in_14
IOPIN 464 784 In
FLAG 704 800 wl_14
IOPIN 704 800 Out
FLAG 464 896 in_15
IOPIN 464 896 In
FLAG 704 912 wl_15
IOPIN 704 912 Out
FLAG -32 -16 en
IOPIN -32 -16 In
SYMBOL sram_16x2_wordline_driver 96 128 R0
SYMATTR InstName Xwl_driver_and0
SYMBOL sram_16x2_wordline_driver 96 240 R0
SYMATTR InstName Xwl_driver_and1
SYMBOL sram_16x2_wordline_driver 96 352 R0
SYMATTR InstName Xwl_driver_and2
SYMBOL sram_16x2_wordline_driver 96 464 R0
SYMATTR InstName Xwl_driver_and3
SYMBOL sram_16x2_wordline_driver 96 576 R0
SYMATTR InstName Xwl_driver_and4
SYMBOL sram_16x2_wordline_driver 96 688 R0
SYMATTR InstName Xwl_driver_and5
SYMBOL sram_16x2_wordline_driver 96 800 R0
SYMATTR InstName Xwl_driver_and6
SYMBOL sram_16x2_wordline_driver 96 912 R0
SYMATTR InstName Xwl_driver_and7
SYMBOL sram_16x2_wordline_driver 592 128 R0
SYMATTR InstName Xwl_driver_and8
SYMBOL sram_16x2_wordline_driver 592 240 R0
SYMATTR InstName Xwl_driver_and9
SYMBOL sram_16x2_wordline_driver 592 352 R0
SYMATTR InstName Xwl_driver_and10
SYMBOL sram_16x2_wordline_driver 592 464 R0
SYMATTR InstName Xwl_driver_and11
SYMBOL sram_16x2_wordline_driver 592 576 R0
SYMATTR InstName Xwl_driver_and12
SYMBOL sram_16x2_wordline_driver 592 688 R0
SYMATTR InstName Xwl_driver_and13
SYMBOL sram_16x2_wordline_driver 592 800 R0
SYMATTR InstName Xwl_driver_and14
SYMBOL sram_16x2_wordline_driver 592 912 R0
SYMATTR InstName Xwl_driver_and15
