Version 4
SHEET 1 1040 2764
WIRE -384 -144 -416 -144
WIRE -352 -144 -384 -144
WIRE -384 -64 -384 -144
WIRE -352 -64 -384 -64
WIRE -384 16 -384 -64
WIRE -352 16 -384 16
WIRE -384 96 -384 16
WIRE -352 96 -384 96
WIRE -384 176 -384 96
WIRE -352 176 -384 176
WIRE -256 176 -288 176
WIRE -224 176 -256 176
WIRE -256 256 -256 176
WIRE -224 256 -256 256
WIRE -256 336 -256 256
WIRE -224 336 -256 336
WIRE -256 416 -256 336
WIRE -224 416 -256 416
WIRE -256 496 -256 416
WIRE -224 496 -256 496
WIRE -128 496 -160 496
WIRE -96 496 -128 496
WIRE -128 576 -128 496
WIRE -96 576 -128 576
WIRE -128 656 -128 576
WIRE -96 656 -128 656
WIRE -128 736 -128 656
WIRE -96 736 -128 736
WIRE -128 816 -128 736
WIRE -96 816 -128 816
WIRE 0 816 -32 816
WIRE 32 816 0 816
WIRE 0 896 0 816
WIRE 32 896 0 896
WIRE 0 976 0 896
WIRE 32 976 0 976
WIRE 0 1056 0 976
WIRE 32 1056 0 1056
WIRE 0 1136 0 1056
WIRE 32 1136 0 1136
WIRE 128 1136 96 1136
WIRE 160 1136 128 1136
WIRE 128 1216 128 1136
WIRE 160 1216 128 1216
WIRE 128 1296 128 1216
WIRE 160 1296 128 1296
WIRE 128 1376 128 1296
WIRE 160 1376 128 1376
WIRE 128 1456 128 1376
WIRE 160 1456 128 1456
WIRE 256 1456 224 1456
WIRE 288 1456 256 1456
WIRE 256 1536 256 1456
WIRE 288 1536 256 1536
WIRE 256 1616 256 1536
WIRE 288 1616 256 1616
WIRE 256 1696 256 1616
WIRE 288 1696 256 1696
WIRE 256 1776 256 1696
WIRE 288 1776 256 1776
WIRE 384 1776 352 1776
WIRE 416 1776 384 1776
WIRE 384 1856 384 1776
WIRE 416 1856 384 1856
WIRE 384 1936 384 1856
WIRE 416 1936 384 1936
WIRE 384 2016 384 1936
WIRE 416 2016 384 2016
WIRE 384 2096 384 2016
WIRE 416 2096 384 2096
WIRE 512 2096 480 2096
WIRE 544 2096 512 2096
WIRE 512 2176 512 2096
WIRE 544 2176 512 2176
WIRE 944 2224 640 2224
WIRE 512 2256 512 2176
WIRE 544 2256 512 2256
WIRE 512 2336 512 2256
WIRE 544 2336 512 2336
WIRE 512 2416 512 2336
WIRE 544 2416 512 2416
WIRE 640 2416 640 2224
WIRE 640 2416 608 2416
WIRE 672 2416 640 2416
WIRE 640 2496 640 2416
WIRE 672 2496 640 2496
WIRE 640 2576 640 2496
WIRE 672 2576 640 2576
WIRE 640 2656 640 2576
WIRE 672 2656 640 2656
WIRE 640 2736 640 2656
WIRE 672 2736 640 2736
FLAG -512 -144 in
IOPIN -512 -144 In
FLAG 944 2224 out
IOPIN 944 2224 Out
SYMBOL sram_16x2_pinv_10 -448 -144 R0
SYMATTR InstName X1
SYMBOL sram_16x2_pinv_10 -320 -144 R0
SYMATTR InstName X2
SYMBOL sram_16x2_pinv_10 -320 -64 R0
SYMATTR InstName X3
SYMBOL sram_16x2_pinv_10 -320 16 R0
SYMATTR InstName X4
SYMBOL sram_16x2_pinv_10 -320 96 R0
SYMATTR InstName X5
SYMBOL sram_16x2_pinv_10 -320 176 R0
SYMATTR InstName X6
SYMBOL sram_16x2_pinv_10 -192 176 R0
SYMATTR InstName X7
SYMBOL sram_16x2_pinv_10 -192 256 R0
SYMATTR InstName X8
SYMBOL sram_16x2_pinv_10 -192 336 R0
SYMATTR InstName X9
SYMBOL sram_16x2_pinv_10 -192 416 R0
SYMATTR InstName X10
SYMBOL sram_16x2_pinv_10 -192 496 R0
SYMATTR InstName X11
SYMBOL sram_16x2_pinv_10 -64 496 R0
SYMATTR InstName X12
SYMBOL sram_16x2_pinv_10 -64 576 R0
SYMATTR InstName X13
SYMBOL sram_16x2_pinv_10 -64 656 R0
SYMATTR InstName X14
SYMBOL sram_16x2_pinv_10 -64 736 R0
SYMATTR InstName X15
SYMBOL sram_16x2_pinv_10 -64 816 R0
SYMATTR InstName X16
SYMBOL sram_16x2_pinv_10 64 816 R0
SYMATTR InstName X17
SYMBOL sram_16x2_pinv_10 64 896 R0
SYMATTR InstName X18
SYMBOL sram_16x2_pinv_10 64 976 R0
SYMATTR InstName X19
SYMBOL sram_16x2_pinv_10 64 1056 R0
SYMATTR InstName X20
SYMBOL sram_16x2_pinv_10 64 1136 R0
SYMATTR InstName X21
SYMBOL sram_16x2_pinv_10 192 1136 R0
SYMATTR InstName X22
SYMBOL sram_16x2_pinv_10 192 1216 R0
SYMATTR InstName X23
SYMBOL sram_16x2_pinv_10 192 1296 R0
SYMATTR InstName X24
SYMBOL sram_16x2_pinv_10 192 1376 R0
SYMATTR InstName X25
SYMBOL sram_16x2_pinv_10 192 1456 R0
SYMATTR InstName X26
SYMBOL sram_16x2_pinv_10 320 1456 R0
SYMATTR InstName X27
SYMBOL sram_16x2_pinv_10 320 1536 R0
SYMATTR InstName X28
SYMBOL sram_16x2_pinv_10 320 1616 R0
SYMATTR InstName X29
SYMBOL sram_16x2_pinv_10 320 1696 R0
SYMATTR InstName X30
SYMBOL sram_16x2_pinv_10 320 1776 R0
SYMATTR InstName X31
SYMBOL sram_16x2_pinv_10 448 1776 R0
SYMATTR InstName X32
SYMBOL sram_16x2_pinv_10 448 1856 R0
SYMATTR InstName X33
SYMBOL sram_16x2_pinv_10 448 1936 R0
SYMATTR InstName X34
SYMBOL sram_16x2_pinv_10 448 2016 R0
SYMATTR InstName X35
SYMBOL sram_16x2_pinv_10 448 2096 R0
SYMATTR InstName X36
SYMBOL sram_16x2_pinv_10 576 2096 R0
SYMATTR InstName X37
SYMBOL sram_16x2_pinv_10 576 2176 R0
SYMATTR InstName X38
SYMBOL sram_16x2_pinv_10 576 2256 R0
SYMATTR InstName X39
SYMBOL sram_16x2_pinv_10 576 2336 R0
SYMATTR InstName X40
SYMBOL sram_16x2_pinv_10 576 2416 R0
SYMATTR InstName X41
SYMBOL sram_16x2_pinv_10 704 2416 R0
SYMATTR InstName X42
SYMBOL sram_16x2_pinv_10 704 2496 R0
SYMATTR InstName X43
SYMBOL sram_16x2_pinv_10 704 2576 R0
SYMATTR InstName X44
SYMBOL sram_16x2_pinv_10 704 2656 R0
SYMATTR InstName X45
SYMBOL sram_16x2_pinv_10 704 2736 R0
SYMATTR InstName X46
