Version 4
SHEET 1 880 836
WIRE -16 144 -64 144
WIRE 48 144 -16 144
WIRE 144 144 112 144
WIRE 176 144 144 144
WIRE 208 144 176 144
WIRE 16 256 -64 256
WIRE 48 256 16 256
WIRE 176 256 112 256
WIRE 208 256 176 256
WIRE 144 320 144 144
WIRE 320 320 144 320
WIRE 480 336 384 336
WIRE 176 352 176 256
WIRE 320 352 176 352
WIRE -16 448 -16 144
WIRE 320 448 -16 448
WIRE 480 464 384 464
WIRE 176 480 176 352
WIRE 320 480 176 480
WIRE 16 576 16 256
WIRE 320 576 16 576
WIRE 480 592 384 592
WIRE 144 608 144 320
WIRE 320 608 144 608
WIRE -16 704 -16 448
WIRE 320 704 -16 704
WIRE 480 720 384 720
WIRE 16 736 16 576
WIRE 320 736 16 736
WIRE -16 832 -16 704
WIRE 16 832 16 736
WIRE 144 832 144 608
WIRE 176 832 176 480
FLAG -64 144 in_0
IOPIN -64 144 In
FLAG 176 144 inbar_0
FLAG -64 256 in_1
IOPIN -64 256 In
FLAG 176 256 inbar_1
FLAG 480 336 out_0
IOPIN 480 336 Out
FLAG 480 464 out_1
IOPIN 480 464 Out
FLAG 480 592 out_2
IOPIN 480 592 Out
FLAG 480 720 out_3
IOPIN 480 720 Out
SYMBOL sram_16x2_pinv 80 144 R0
SYMATTR InstName Xpre_inv_0
SYMBOL sram_16x2_pinv 80 256 R0
SYMATTR InstName Xpre_inv_1
SYMBOL sram_16x2_and2_dec 352 336 R0
SYMATTR InstName XXpre2x4_and_0
SYMBOL sram_16x2_and2_dec 352 464 R0
SYMATTR InstName XXpre1
SYMBOL sram_16x2_and2_dec 352 592 R0
SYMATTR InstName XXpre2
SYMBOL sram_16x2_and2_dec 352 720 R0
SYMATTR InstName XXpre3
