Version 4
SHEET 1 880 680
WIRE 112 -16 48 -16
WIRE 208 -16 112 -16
WIRE 208 80 208 -16
WIRE 160 112 64 112
WIRE 352 112 256 112
WIRE 112 176 112 -16
WIRE 208 176 112 176
WIRE 208 208 208 176
WIRE 160 240 64 240
WIRE 352 240 256 240
WIRE 112 304 112 176
WIRE 208 304 112 304
WIRE 208 336 208 304
WIRE 160 368 64 368
WIRE 352 368 256 368
FLAG 64 112 bl_0_0
IOPIN 64 112 BiDir
FLAG 64 240 bl_0_1
IOPIN 64 240 BiDir
FLAG 64 368 bl_0_2
IOPIN 64 368 BiDir
FLAG 352 112 br_0_0
IOPIN 352 112 BiDir
FLAG 352 240 br_0_1
IOPIN 352 240 BiDir
FLAG 352 368 br_0_2
IOPIN 352 368 BiDir
FLAG 48 -16 wl_0_0
IOPIN 48 -16 In
SYMBOL dummy_cell_1rw 208 112 R0
SYMATTR InstName X1
SYMBOL dummy_cell_1rw 208 240 R0
SYMATTR InstName X2
SYMBOL dummy_cell_1rw 208 368 R0
SYMATTR InstName X3
