Version 4
SHEET 1 880 680
WIRE 176 32 0 32
WIRE 512 32 176 32
WIRE 176 96 176 32
WIRE 512 96 512 32
WIRE 112 128 80 128
WIRE 272 128 240 128
WIRE 448 128 416 128
WIRE 608 128 576 128
WIRE 176 208 176 160
WIRE 512 208 512 160
FLAG 0 32 en
IOPIN 0 32 In
FLAG 80 128 bl_0
IOPIN 80 128 In
FLAG 416 128 bl_1
IOPIN 416 128 In
FLAG 272 128 br_0
IOPIN 272 128 In
FLAG 608 128 br_1
IOPIN 608 128 In
FLAG 176 208 dout_0
IOPIN 176 208 Out
FLAG 512 208 dout_1
IOPIN 512 208 Out
SYMBOL sense_amp 176 144 R0
SYMATTR InstName X1
SYMBOL sense_amp 512 144 R0
SYMATTR InstName X2
