Version 4
SHEET 1 1212 680
WIRE 496 -400 480 -400
WIRE 496 -288 496 -400
WIRE 384 -240 336 -240
WIRE 656 -240 608 -240
WIRE 384 -208 336 -208
WIRE 656 -208 608 -208
WIRE 736 -96 640 -96
WIRE 48 -80 -48 -80
WIRE 736 -64 640 -64
WIRE 48 -48 -48 -48
WIRE 736 -32 640 -32
WIRE 48 -16 -48 -16
WIRE 736 0 640 0
WIRE 48 16 -48 16
WIRE 736 32 640 32
WIRE 48 48 -48 48
WIRE 736 64 640 64
WIRE 48 80 -48 80
WIRE 736 96 640 96
WIRE 48 112 -48 112
WIRE 336 112 288 112
WIRE 736 128 640 128
WIRE 48 144 -48 144
WIRE 336 144 288 144
WIRE 1024 144 976 144
WIRE 736 160 640 160
WIRE 48 176 -48 176
WIRE 336 176 288 176
WIRE 1024 176 976 176
WIRE 736 192 640 192
WIRE 48 208 -48 208
WIRE 336 208 288 208
WIRE 736 224 640 224
WIRE 48 240 -48 240
WIRE 736 256 640 256
WIRE 48 272 -48 272
WIRE 736 288 640 288
WIRE 48 304 -48 304
WIRE 736 320 640 320
WIRE 48 336 -48 336
WIRE 736 352 640 352
WIRE 48 368 -48 368
WIRE 736 384 640 384
WIRE 48 400 -48 400
WIRE 736 416 640 416
FLAG 336 112 bl_0_0
IOPIN 336 112 BiDir
FLAG 336 176 br_0_0
IOPIN 336 176 BiDir
FLAG 336 144 bl_0_1
IOPIN 336 144 BiDir
FLAG 336 208 br_0_1
IOPIN 336 208 BiDir
FLAG 1024 144 rbl_bl_0_0
IOPIN 1024 144 BiDir
FLAG 1024 176 rbl_br_0_0
IOPIN 1024 176 BiDir
FLAG 640 -64 wl_0_0
IOPIN 640 -64 In
FLAG 640 -32 wl_0_1
IOPIN 640 -32 In
FLAG 640 0 wl_0_2
IOPIN 640 0 In
FLAG 640 32 wl_0_3
IOPIN 640 32 In
FLAG 640 64 wl_0_4
IOPIN 640 64 In
FLAG 640 96 wl_0_5
IOPIN 640 96 In
FLAG 640 128 wl_0_6
IOPIN 640 128 In
FLAG 640 160 wl_0_7
IOPIN 640 160 In
FLAG 640 192 wl_0_8
IOPIN 640 192 In
FLAG 640 224 wl_0_9
IOPIN 640 224 In
FLAG 640 256 wl_0_10
IOPIN 640 256 In
FLAG 640 288 wl_0_11
IOPIN 640 288 In
FLAG 640 320 wl_0_12
IOPIN 640 320 In
FLAG 640 352 wl_0_13
IOPIN 640 352 In
FLAG 640 384 wl_0_14
IOPIN 640 384 In
FLAG 640 416 wl_0_15
IOPIN 640 416 In
FLAG 640 -96 rbl_wl_0_0
IOPIN 640 -96 In
FLAG 480 -400 rbl_wl_0_0
IOPIN 480 -400 In
FLAG 336 -240 bl_0_0
IOPIN 336 -240 BiDir
FLAG 336 -208 bl_0_1
IOPIN 336 -208 BiDir
FLAG 656 -240 br_0_0
IOPIN 656 -240 BiDir
FLAG 656 -208 br_0_1
IOPIN 656 -208 BiDir
FLAG -48 -80 wl_0_0
IOPIN -48 -80 In
FLAG -48 -48 wl_0_1
IOPIN -48 -48 In
FLAG -48 -16 wl_0_2
IOPIN -48 -16 In
FLAG -48 16 wl_0_3
IOPIN -48 16 In
FLAG -48 48 wl_0_4
IOPIN -48 48 In
FLAG -48 80 wl_0_5
IOPIN -48 80 In
FLAG -48 112 wl_0_6
IOPIN -48 112 In
FLAG -48 144 wl_0_7
IOPIN -48 144 In
FLAG -48 176 wl_0_8
IOPIN -48 176 In
FLAG -48 208 wl_0_9
IOPIN -48 208 In
FLAG -48 240 wl_0_10
IOPIN -48 240 In
FLAG -48 272 wl_0_11
IOPIN -48 272 In
FLAG -48 304 wl_0_12
IOPIN -48 304 In
FLAG -48 336 wl_0_13
IOPIN -48 336 In
FLAG -48 368 wl_0_14
IOPIN -48 368 In
FLAG -48 400 wl_0_15
IOPIN -48 400 In
SYMBOL sram_16x2_bitcell_array 160 160 R0
SYMATTR InstName Xbitcell_array
SYMBOL sram_16x2_replica_column 848 160 R0
SYMATTR InstName Xreplica_col_0
SYMBOL sram_16x2_dummy_array 496 -224 R0
SYMATTR InstName Xdummy_row_0
