Version 4
SHEET 1 880 680
WIRE 80 32 16 32
WIRE 80 96 80 32
WIRE 128 96 80 96
WIRE 320 112 240 112
WIRE 128 128 48 128
WIRE 80 224 80 96
WIRE 128 224 80 224
WIRE 320 240 240 240
WIRE 128 256 48 256
WIRE 80 352 80 224
WIRE 128 352 80 352
WIRE 320 368 240 368
WIRE 128 384 48 384
WIRE 80 480 80 352
WIRE 128 480 80 480
WIRE 320 496 240 496
WIRE 128 512 48 512
FLAG 48 128 din_0
IOPIN 48 128 In
FLAG 320 112 dout_0
IOPIN 320 112 Out
FLAG 48 256 din_1
IOPIN 48 256 In
FLAG 320 240 dout_1
IOPIN 320 240 Out
FLAG 48 384 din_2
IOPIN 48 384 In
FLAG 320 368 dout_2
IOPIN 320 368 Out
FLAG 48 512 din_3
IOPIN 48 512 In
FLAG 320 496 dout_3
IOPIN 320 496 Out
FLAG 16 32 clk
IOPIN 16 32 In
SYMBOL dff 160 128 R0
SYMATTR InstName X1
SYMBOL dff 160 256 R0
SYMATTR InstName X2
SYMBOL dff 160 384 R0
SYMATTR InstName X3
SYMBOL dff 160 512 R0
SYMATTR InstName X4
