Version 4
SHEET 1 1436 1096
WIRE 1264 160 288 160
WIRE 288 272 288 160
WIRE 800 272 288 272
WIRE 976 288 864 288
WIRE 1184 288 976 288
WIRE 800 304 736 304
WIRE 288 416 288 272
WIRE 416 416 288 416
WIRE 592 416 480 416
WIRE 800 416 592 416
WIRE 960 432 864 432
WIRE 976 432 960 432
WIRE 1072 432 976 432
WIRE 1216 432 1136 432
WIRE 1296 432 1216 432
WIRE 736 448 736 304
WIRE 800 448 736 448
WIRE 736 496 736 448
WIRE 656 512 592 512
WIRE 704 512 656 512
WIRE 192 528 128 528
WIRE 288 528 288 416
WIRE 288 528 256 528
WIRE 320 528 288 528
WIRE 704 544 592 544
WIRE 320 560 128 560
WIRE 736 576 736 496
WIRE 736 576 592 576
WIRE 320 592 128 592
WIRE 656 608 592 608
WIRE 1024 608 656 608
WIRE 1024 640 912 640
WIRE 1168 640 1088 640
WIRE 1264 640 1168 640
WIRE 960 672 960 432
WIRE 1024 672 960 672
WIRE 320 704 128 704
WIRE 560 704 432 704
WIRE 608 704 560 704
WIRE 736 704 608 704
WIRE 896 704 800 704
WIRE 912 704 912 640
WIRE 912 704 896 704
WIRE 608 816 608 704
WIRE 1040 816 608 816
WIRE 960 848 960 672
WIRE 1040 848 960 848
WIRE 1264 848 1104 848
WIRE 704 880 704 544
WIRE 1040 880 704 880
WIRE 1184 944 1184 288
WIRE 1184 944 896 944
WIRE 896 1008 896 944
WIRE 1024 1008 896 1008
WIRE 1152 1024 1088 1024
WIRE 1264 1024 1216 1024
WIRE 608 1040 608 816
WIRE 1024 1040 608 1040
FLAG 128 560 csb
IOPIN 128 560 In
FLAG 128 592 web
IOPIN 128 592 In
FLAG 128 704 rbl_bl
IOPIN 128 704 In
FLAG 128 528 clk
IOPIN 128 528 In
FLAG 1264 848 s_en
IOPIN 1264 848 Out
FLAG 1264 640 w_en
IOPIN 1264 640 Out
FLAG 1264 1024 p_en_bar
IOPIN 1264 1024 Out
FLAG 1296 432 wl_en
IOPIN 1296 432 Out
FLAG 1264 160 clk_buf
IOPIN 1264 160 Out
FLAG 288 528 clk_buf
FLAG 656 512 cs_bar
FLAG 656 608 we
FLAG 592 416 clk_bar
FLAG 976 432 gated_clk_bar
FLAG 976 288 gated_clk_buf
FLAG 1216 432 wl_en
FLAG 560 704 rbl_bl_delay
FLAG 896 704 rbl_bl_delay_bar
FLAG 1168 640 w_en
FLAG 736 496 cs
FLAG 704 880 we_bar
SYMBOL sram_16x2_dff_buf_array 448 560 R0
SYMATTR InstName Xctrl_dffs
SYMBOL sram_16x2_pdriver_0 224 528 R0
SYMATTR InstName Xclkbuf
SYMBOL sram_16x2_pinv_3 448 416 R0
SYMATTR InstName Xinv_clk_bar
SYMBOL sram_16x2_pand2 832 432 R0
SYMATTR InstName Xand2_gated_clk_bar
SYMBOL sram_16x2_pand2 832 288 R0
SYMATTR InstName Xand2_gated_clk_buf
SYMBOL sram_16x2_pdriver_1 1104 432 R0
SYMATTR InstName Xbuf_wl_en
SYMBOL sram_16x2_delay_chain 368 704 R0
SYMATTR InstName Xdelay_chain
SYMBOL sram_16x2_pinv_3 768 704 R0
SYMATTR InstName Xrbl_bl_delay_inv
SYMBOL sram_16x2_pand3 1056 640 R0
SYMATTR InstName Xw_en_and
SYMBOL sram_16x2_pand3_0 1072 848 R0
SYMATTR InstName Xbuf_s_en_and
SYMBOL sram_16x2_pnand2_1 1056 1024 R0
SYMATTR InstName Xnand_p_en_bar
SYMBOL sram_16x2_pdriver_4 1184 1024 R0
SYMATTR InstName X1
