Version 4
SHEET 1 2708 936
WIRE 240 80 192 80
WIRE 416 80 240 80
WIRE 928 80 416 80
WIRE 1440 80 928 80
WIRE 1952 80 1440 80
WIRE 2704 80 1952 80
WIRE 16 112 -48 112
WIRE 240 112 192 112
WIRE 544 112 240 112
WIRE 1056 112 544 112
WIRE 1568 112 1056 112
WIRE 2080 112 1568 112
WIRE 2704 112 2080 112
WIRE 16 144 -48 144
WIRE 240 144 192 144
WIRE 672 144 240 144
WIRE 1184 144 672 144
WIRE 1696 144 1184 144
WIRE 2208 144 1696 144
WIRE 2704 144 2208 144
WIRE 240 176 192 176
WIRE 800 176 240 176
WIRE 1312 176 800 176
WIRE 1824 176 1312 176
WIRE 2336 176 1824 176
WIRE 2704 176 2336 176
WIRE 240 288 192 288
WIRE 384 288 240 288
WIRE 512 288 384 288
WIRE 640 288 512 288
WIRE 768 288 640 288
WIRE 2704 288 768 288
WIRE 16 320 -48 320
WIRE 240 320 192 320
WIRE 896 320 240 320
WIRE 1024 320 896 320
WIRE 1152 320 1024 320
WIRE 1280 320 1152 320
WIRE 2704 320 1280 320
WIRE 16 352 -48 352
WIRE 240 352 192 352
WIRE 1408 352 240 352
WIRE 1536 352 1408 352
WIRE 1664 352 1536 352
WIRE 1792 352 1664 352
WIRE 2704 352 1792 352
WIRE 240 384 192 384
WIRE 1920 384 240 384
WIRE 2048 384 1920 384
WIRE 2176 384 2048 384
WIRE 2304 384 2176 384
WIRE 2704 384 2304 384
WIRE 384 544 384 288
WIRE 416 544 416 80
WIRE 512 544 512 288
WIRE 544 544 544 112
WIRE 640 544 640 288
WIRE 672 544 672 144
WIRE 768 544 768 288
WIRE 800 544 800 176
WIRE 896 544 896 320
WIRE 928 544 928 80
WIRE 1024 544 1024 320
WIRE 1056 544 1056 112
WIRE 1152 544 1152 320
WIRE 1184 544 1184 144
WIRE 1280 544 1280 320
WIRE 1312 544 1312 176
WIRE 1408 544 1408 352
WIRE 1440 544 1440 80
WIRE 1536 544 1536 352
WIRE 1568 544 1568 112
WIRE 1664 544 1664 352
WIRE 1696 544 1696 144
WIRE 1792 544 1792 352
WIRE 1824 544 1824 176
WIRE 1920 544 1920 384
WIRE 1952 544 1952 80
WIRE 2048 544 2048 384
WIRE 2080 544 2080 112
WIRE 2176 544 2176 384
WIRE 2208 544 2208 144
WIRE 2304 544 2304 384
WIRE 2336 544 2336 176
WIRE 400 752 400 608
WIRE 528 752 528 608
WIRE 656 752 656 608
WIRE 784 752 784 608
WIRE 912 752 912 608
WIRE 1040 752 1040 608
WIRE 1168 752 1168 608
WIRE 1296 752 1296 608
WIRE 1424 752 1424 608
WIRE 1552 752 1552 608
WIRE 1680 752 1680 608
WIRE 1808 752 1808 608
WIRE 1936 752 1936 608
WIRE 2064 752 2064 608
WIRE 2192 752 2192 608
WIRE 2320 752 2320 608
FLAG -48 112 addr_0
IOPIN -48 112 In
FLAG -48 144 addr_1
IOPIN -48 144 In
FLAG -48 320 addr_2
IOPIN -48 320 In
FLAG -48 352 addr_3
IOPIN -48 352 In
FLAG 240 80 out_0
FLAG 240 112 out_1
FLAG 240 144 out_2
FLAG 240 176 out_3
FLAG 240 288 out_4
FLAG 240 320 out_5
FLAG 240 352 out_6
FLAG 240 384 out_7
FLAG 400 752 decode_0
IOPIN 400 752 Out
FLAG 528 752 decode_1
IOPIN 528 752 Out
FLAG 656 752 decode_2
IOPIN 656 752 Out
FLAG 784 752 decode_3
IOPIN 784 752 Out
FLAG 912 752 decode_4
IOPIN 912 752 Out
FLAG 1040 752 decode_5
IOPIN 1040 752 Out
FLAG 1168 752 decode_6
IOPIN 1168 752 Out
FLAG 1296 752 decode_7
IOPIN 1296 752 Out
FLAG 1424 752 decode_8
IOPIN 1424 752 Out
FLAG 1552 752 decode_9
IOPIN 1552 752 Out
FLAG 1680 752 decode_10
IOPIN 1680 752 Out
FLAG 1808 752 decode_11
IOPIN 1808 752 Out
FLAG 1936 752 decode_12
IOPIN 1936 752 Out
FLAG 2064 752 decode_13
IOPIN 2064 752 Out
FLAG 2192 752 decode_14
IOPIN 2192 752 Out
FLAG 2320 752 decode_15
IOPIN 2320 752 Out
SYMBOL sram_16x2_hierarchical_predecode2x4 96 128 R0
SYMATTR InstName Xpre_0
SYMBOL sram_16x2_hierarchical_predecode2x4 96 336 R0
SYMATTR InstName Xpre_1
SYMBOL sram_16x2_and2_dec 400 576 R90
SYMATTR InstName XDEC_AND_0
SYMBOL sram_16x2_and2_dec 528 576 R90
SYMATTR InstName XDEC_AND_1
SYMBOL sram_16x2_and2_dec 656 576 R90
SYMATTR InstName XDEC_AND_2
SYMBOL sram_16x2_and2_dec 784 576 R90
SYMATTR InstName XDEC_AND_3
SYMBOL sram_16x2_and2_dec 912 576 R90
SYMATTR InstName XDEC_AND_4
SYMBOL sram_16x2_and2_dec 1040 576 R90
SYMATTR InstName XDEC_AND_5
SYMBOL sram_16x2_and2_dec 1168 576 R90
SYMATTR InstName XDEC_AND_6
SYMBOL sram_16x2_and2_dec 1296 576 R90
SYMATTR InstName XDEC_AND_7
SYMBOL sram_16x2_and2_dec 1424 576 R90
SYMATTR InstName XDEC_AND_8
SYMBOL sram_16x2_and2_dec 1552 576 R90
SYMATTR InstName XDEC_AND_9
SYMBOL sram_16x2_and2_dec 1680 576 R90
SYMATTR InstName XDEC_AND_10
SYMBOL sram_16x2_and2_dec 1808 576 R90
SYMATTR InstName XDEC_AND_11
SYMBOL sram_16x2_and2_dec 1936 576 R90
SYMATTR InstName XDEC_AND_12
SYMBOL sram_16x2_and2_dec 2064 576 R90
SYMATTR InstName XDEC_AND_13
SYMBOL sram_16x2_and2_dec 2192 576 R90
SYMATTR InstName XDEC_AND_14
SYMBOL sram_16x2_and2_dec 2320 576 R90
SYMATTR InstName XDEC_AND_15
