Version 4
SHEET 1 880 680
WIRE 48 96 0 96
WIRE 160 112 112 112
WIRE 272 112 224 112
WIRE 48 128 0 128
FLAG 0 96 A
IOPIN 0 96 In
FLAG 0 128 B
IOPIN 0 128 In
FLAG 272 112 Z
IOPIN 272 112 Out
SYMBOL sram_16x2_pinv 192 112 R0
SYMATTR InstName X2
SYMBOL sram_16x2_pnand2 80 112 R0
SYMATTR InstName X1
