Version 4
SHEET 1 1128 1288
WIRE 752 496 -384 496
WIRE 64 576 -80 576
WIRE -336 592 -416 592
WIRE -48 608 -80 608
WIRE 112 608 -48 608
WIRE -336 624 -416 624
WIRE -48 640 -80 640
WIRE 144 640 -48 640
WIRE -384 656 -384 496
WIRE -336 656 -384 656
WIRE 752 656 752 496
WIRE -48 672 -80 672
WIRE 176 672 -48 672
WIRE -336 688 -416 688
WIRE -48 704 -80 704
WIRE 208 704 -48 704
WIRE 64 784 64 576
WIRE 64 784 -368 784
WIRE -368 896 -368 784
WIRE -336 896 -368 896
WIRE 0 912 -128 912
WIRE 352 912 0 912
WIRE -336 928 -416 928
WIRE 0 944 -128 944
WIRE 352 944 0 944
WIRE -336 960 -416 960
WIRE 0 976 -128 976
WIRE 352 976 0 976
WIRE -336 992 -416 992
WIRE 0 1008 -128 1008
WIRE 352 1008 0 1008
WIRE -336 1024 -416 1024
WIRE 816 1024 688 1024
WIRE 352 1040 32 1040
WIRE 816 1056 688 1056
WIRE 352 1072 64 1072
WIRE 752 1088 752 656
WIRE 752 1088 688 1088
WIRE 112 1104 112 608
WIRE 352 1104 112 1104
WIRE 144 1136 144 640
WIRE 352 1136 144 1136
WIRE -368 1152 -368 896
WIRE -336 1152 -368 1152
WIRE -48 1168 -128 1168
WIRE 32 1168 32 1040
WIRE 32 1168 -48 1168
WIRE 176 1168 176 672
WIRE 352 1168 176 1168
WIRE -336 1184 -432 1184
WIRE -48 1200 -128 1200
WIRE 64 1200 64 1072
WIRE 64 1200 -48 1200
WIRE 208 1200 208 704
WIRE 352 1200 208 1200
WIRE -336 1216 -432 1216
FLAG -416 624 csb0
IOPIN -416 624 In
FLAG -416 592 clk0
IOPIN -416 592 In
FLAG -416 688 web0
IOPIN -416 688 In
FLAG -432 1184 din0[0]
IOPIN -432 1184 In
FLAG -432 1216 din0[1]
IOPIN -432 1216 In
FLAG -416 928 addr0[0]
IOPIN -416 928 In
FLAG -416 960 addr0[1]
IOPIN -416 960 In
FLAG -416 992 addr0[2]
IOPIN -416 992 In
FLAG -416 1024 addr0[3]
IOPIN -416 1024 In
FLAG 816 1024 dout0[0]
IOPIN 816 1024 Out
FLAG 816 1056 dout0[1]
IOPIN 816 1056 Out
FLAG -368 784 clk_buf0
FLAG 0 912 a0_0
FLAG 0 944 a0_1
FLAG 0 976 a0_2
FLAG 0 1008 a0_3
FLAG 752 656 rbl_bl0
FLAG -48 640 s_en0
FLAG -48 672 w_en0
FLAG -48 704 wl_en0
FLAG -48 608 p_en_bar0
FLAG -48 1168 bank_din0_0
FLAG -48 1200 bank_din0_1
SYMBOL sram_16x2_control_logic_rw -208 640 R0
SYMATTR InstName Xcontrol0
SYMBOL sram_16x2_row_addr_dff -240 960 R0
SYMATTR InstName Xrow_address0
SYMBOL sram_16x2_data_dff -240 1184 R0
SYMATTR InstName Xdata_dff0
SYMBOL sram_16x2_bank 512 1056 R0
SYMATTR InstName Xbank0
