Version 4
SHEET 1 880 680
WIRE 64 160 -16 160
WIRE 208 160 128 160
FLAG -16 160 A
IOPIN -16 160 In
FLAG 208 160 Z
IOPIN 208 160 Out
SYMBOL sram_16x2_pinv_2 96 160 R0
SYMATTR InstName X1
