Version 4
SHEET 1 880 680
WIRE 80 112 0 112
WIRE 288 128 192 128
WIRE 416 128 416 16
WIRE 416 128 352 128
WIRE 496 128 416 128
WIRE 624 128 624 16
WIRE 624 128 560 128
WIRE 656 128 624 128
WIRE 80 144 0 144
FLAG 0 144 D
IOPIN 0 144 In
FLAG 0 112 clk
IOPIN 0 112 In
FLAG 624 16 Q
IOPIN 624 16 Out
FLAG 416 16 Qb
IOPIN 416 16 Out
SYMBOL dff 112 144 R0
SYMATTR InstName Xdff_buf_dff
SYMBOL sram_16x2_pinv_0 320 128 R0
SYMATTR InstName Xdff_buf_inv1
SYMBOL sram_16x2_pinv_1 528 128 R0
SYMATTR InstName Xdff_buf_inv2
