Version 4
SHEET 1 880 680
WIRE 144 160 -16 160
WIRE 368 160 208 160
FLAG -16 160 A
IOPIN -16 160 In
FLAG 368 160 Z
IOPIN 368 160 Out
SYMBOL sram_16x2_pinv_6 176 160 R0
SYMATTR InstName X1
