Version 4
SHEET 1 880 680
WIRE 48 160 0 160
WIRE 160 160 112 160
WIRE 272 160 224 160
FLAG 0 160 A
IOPIN 0 160 In
FLAG 272 160 Z
IOPIN 272 160 Out
SYMBOL sram_16x2_pinv_5 80 160 R0
SYMATTR InstName X1
SYMBOL sram_16x2_pinv_5 192 160 R0
SYMATTR InstName X2
