Version 4
SHEET 1 880 680
WIRE 160 48 80 48
WIRE 560 48 160 48
WIRE 160 128 160 48
WIRE 560 128 560 48
WIRE 112 160 80 160
WIRE 240 160 208 160
WIRE 512 160 480 160
WIRE 640 160 608 160
FLAG 80 160 bl_0_0
IOPIN 80 160 BiDir
FLAG 480 160 bl_0_1
IOPIN 480 160 BiDir
FLAG 240 160 br_0_0
IOPIN 240 160 BiDir
FLAG 640 160 br_0_1
IOPIN 640 160 BiDir
FLAG 80 48 wl_0_0
IOPIN 80 48 In
SYMBOL dummy_cell_1rw 160 160 R0
SYMATTR InstName X1
SYMBOL dummy_cell_1rw 560 160 R0
SYMATTR InstName X2
