Version 4
SHEET 1 1032 1404
WIRE -80 496 -192 496
WIRE -80 528 -192 528
WIRE -80 560 -192 560
WIRE -80 592 -192 592
WIRE -80 624 -192 624
WIRE -80 656 -192 656
WIRE 400 672 272 672
WIRE -416 688 -528 688
WIRE -80 688 -192 688
WIRE 432 704 272 704
WIRE -416 720 -528 720
WIRE -80 720 -192 720
WIRE 464 736 272 736
WIRE -416 752 -528 752
WIRE -80 752 -192 752
WIRE 496 768 272 768
WIRE -416 784 -528 784
WIRE -80 784 -192 784
WIRE 544 800 272 800
WIRE -416 816 -528 816
WIRE -80 816 -192 816
WIRE 576 832 272 832
WIRE -80 848 -192 848
WIRE -80 880 -192 880
WIRE -80 912 -192 912
WIRE -80 944 -192 944
WIRE -80 976 -192 976
WIRE -80 1008 -192 1008
WIRE 400 1152 400 672
WIRE 400 1152 272 1152
WIRE 432 1184 432 704
WIRE 432 1184 272 1184
WIRE 16 1200 -544 1200
WIRE 464 1216 464 736
WIRE 464 1216 272 1216
WIRE 16 1232 -544 1232
WIRE 496 1248 496 768
WIRE 496 1248 272 1248
WIRE 544 1248 544 800
WIRE 704 1248 544 1248
WIRE 16 1264 -544 1264
WIRE 704 1280 272 1280
WIRE 16 1296 -544 1296
WIRE 704 1312 272 1312
WIRE 16 1328 -544 1328
WIRE 544 1344 544 1248
WIRE 544 1344 272 1344
WIRE 576 1376 576 832
WIRE 576 1376 272 1376
FLAG -528 688 addr0_0
IOPIN -528 688 In
FLAG -528 720 addr0_1
IOPIN -528 720 In
FLAG -528 752 addr0_2
IOPIN -528 752 In
FLAG -528 784 addr0_3
IOPIN -528 784 In
FLAG -528 816 wl_en0
IOPIN -528 816 In
FLAG 704 1280 dout0_0
IOPIN 704 1280 Out
FLAG 704 1312 dout0_1
IOPIN 704 1312 Out
FLAG -544 1200 din0_0
IOPIN -544 1200 In
FLAG -544 1232 din0_1
IOPIN -544 1232 In
FLAG -544 1264 p_en_bar0
IOPIN -544 1264 In
FLAG -544 1296 s_en0
IOPIN -544 1296 In
FLAG -544 1328 w_en0
IOPIN -544 1328 In
FLAG 704 1248 rbl_bl_0_0
IOPIN 704 1248 Out
SYMBOL sram_16x2_capped_replica_bitcell_array 96 752 R0
SYMATTR InstName Xbitcell_array
SYMBOL sram_16x2_port_data 144 1264 R0
SYMATTR InstName Xport_data0
SYMBOL sram_16x2_port_address -304 752 R0
SYMATTR InstName Xport_address0
