Version 4
SHEET 1 1872 792
WIRE 176 48 80 48
WIRE 656 48 560 48
WIRE 1152 48 1056 48
WIRE 1632 48 1536 48
WIRE 176 96 176 48
WIRE 656 96 656 48
WIRE 1152 96 1152 48
WIRE 1632 96 1632 48
WIRE 128 128 80 128
WIRE 272 128 224 128
WIRE 608 128 560 128
WIRE 752 128 704 128
WIRE 1104 128 1056 128
WIRE 1248 128 1200 128
WIRE 1584 128 1536 128
WIRE 1728 128 1680 128
WIRE 176 192 80 192
WIRE 656 192 560 192
WIRE 1152 192 1056 192
WIRE 1632 192 1536 192
WIRE 176 240 176 192
WIRE 656 240 656 192
WIRE 1152 240 1152 192
WIRE 1632 240 1632 192
WIRE 128 272 80 272
WIRE 272 272 224 272
WIRE 608 272 560 272
WIRE 752 272 704 272
WIRE 1104 272 1056 272
WIRE 1248 272 1200 272
WIRE 1584 272 1536 272
WIRE 1728 272 1680 272
WIRE 176 336 80 336
WIRE 656 336 560 336
WIRE 1152 336 1056 336
WIRE 1632 336 1536 336
WIRE 176 384 176 336
WIRE 656 384 656 336
WIRE 1152 384 1152 336
WIRE 1632 384 1632 336
WIRE 128 416 80 416
WIRE 272 416 224 416
WIRE 608 416 560 416
WIRE 752 416 704 416
WIRE 1104 416 1056 416
WIRE 1248 416 1200 416
WIRE 1584 416 1536 416
WIRE 1728 416 1680 416
WIRE 176 480 80 480
WIRE 656 480 560 480
WIRE 1152 480 1056 480
WIRE 1632 480 1536 480
WIRE 176 528 176 480
WIRE 656 528 656 480
WIRE 1152 528 1152 480
WIRE 1632 528 1632 480
WIRE 128 560 80 560
WIRE 272 560 224 560
WIRE 608 560 560 560
WIRE 752 560 704 560
WIRE 1104 560 1056 560
WIRE 1248 560 1200 560
WIRE 1584 560 1536 560
WIRE 1728 560 1680 560
WIRE 192 640 96 640
WIRE 192 688 192 640
WIRE 144 720 96 720
WIRE 288 720 240 720
FLAG 80 48 wl_0_0
IOPIN 80 48 In
FLAG 80 128 bl_0_0
IOPIN 80 128 BiDir
FLAG 272 128 br_0_0
IOPIN 272 128 BiDir
FLAG 80 192 wl_0_1
IOPIN 80 192 In
FLAG 80 272 bl_0_0
IOPIN 80 272 BiDir
FLAG 272 272 br_0_0
IOPIN 272 272 BiDir
FLAG 80 336 wl_0_2
IOPIN 80 336 In
FLAG 80 416 bl_0_0
IOPIN 80 416 BiDir
FLAG 272 416 br_0_0
IOPIN 272 416 BiDir
FLAG 80 480 wl_0_3
IOPIN 80 480 In
FLAG 80 560 bl_0_0
IOPIN 80 560 BiDir
FLAG 272 560 br_0_0
IOPIN 272 560 BiDir
FLAG 560 48 wl_0_4
IOPIN 560 48 In
FLAG 560 128 bl_0_0
IOPIN 560 128 BiDir
FLAG 752 128 br_0_0
IOPIN 752 128 BiDir
FLAG 560 192 wl_0_5
IOPIN 560 192 In
FLAG 560 272 bl_0_0
IOPIN 560 272 BiDir
FLAG 752 272 br_0_0
IOPIN 752 272 BiDir
FLAG 560 336 wl_0_6
IOPIN 560 336 In
FLAG 560 416 bl_0_0
IOPIN 560 416 BiDir
FLAG 752 416 br_0_0
IOPIN 752 416 BiDir
FLAG 560 480 wl_0_7
IOPIN 560 480 In
FLAG 560 560 bl_0_0
IOPIN 560 560 BiDir
FLAG 752 560 br_0_0
IOPIN 752 560 BiDir
FLAG 1056 48 wl_0_8
IOPIN 1056 48 In
FLAG 1056 128 bl_0_0
IOPIN 1056 128 BiDir
FLAG 1248 128 br_0_0
IOPIN 1248 128 BiDir
FLAG 1056 192 wl_0_9
IOPIN 1056 192 In
FLAG 1056 272 bl_0_0
IOPIN 1056 272 BiDir
FLAG 1248 272 br_0_0
IOPIN 1248 272 BiDir
FLAG 1056 336 wl_0_10
IOPIN 1056 336 In
FLAG 1056 416 bl_0_0
IOPIN 1056 416 BiDir
FLAG 1248 416 br_0_0
IOPIN 1248 416 BiDir
FLAG 1056 480 wl_0_11
IOPIN 1056 480 In
FLAG 1056 560 bl_0_0
IOPIN 1056 560 BiDir
FLAG 1248 560 br_0_0
IOPIN 1248 560 BiDir
FLAG 1536 48 wl_0_12
IOPIN 1536 48 In
FLAG 1536 128 bl_0_0
IOPIN 1536 128 BiDir
FLAG 1728 128 br_0_0
IOPIN 1728 128 BiDir
FLAG 1536 192 wl_0_13
IOPIN 1536 192 In
FLAG 1536 272 bl_0_0
IOPIN 1536 272 BiDir
FLAG 1728 272 br_0_0
IOPIN 1728 272 BiDir
FLAG 1536 336 wl_0_14
IOPIN 1536 336 In
FLAG 1536 416 bl_0_0
IOPIN 1536 416 BiDir
FLAG 1728 416 br_0_0
IOPIN 1728 416 BiDir
FLAG 1536 480 wl_0_15
IOPIN 1536 480 In
FLAG 1536 560 bl_0_0
IOPIN 1536 560 BiDir
FLAG 1728 560 br_0_0
IOPIN 1728 560 BiDir
FLAG 96 640 wl_0_16
IOPIN 96 640 In
FLAG 96 720 bl_0_0
IOPIN 96 720 BiDir
FLAG 288 720 br_0_0
IOPIN 288 720 BiDir
SYMBOL replica_cell_1rw 176 128 R0
SYMATTR InstName X1
SYMBOL replica_cell_1rw 176 272 R0
SYMATTR InstName X2
SYMBOL replica_cell_1rw 176 416 R0
SYMATTR InstName X3
SYMBOL replica_cell_1rw 176 560 R0
SYMATTR InstName X4
SYMBOL replica_cell_1rw 656 128 R0
SYMATTR InstName X5
SYMBOL replica_cell_1rw 656 272 R0
SYMATTR InstName X6
SYMBOL replica_cell_1rw 656 416 R0
SYMATTR InstName X7
SYMBOL replica_cell_1rw 656 560 R0
SYMATTR InstName X8
SYMBOL replica_cell_1rw 1152 128 R0
SYMATTR InstName X9
SYMBOL replica_cell_1rw 1152 272 R0
SYMATTR InstName X10
SYMBOL replica_cell_1rw 1152 416 R0
SYMATTR InstName X11
SYMBOL replica_cell_1rw 1152 560 R0
SYMATTR InstName X12
SYMBOL replica_cell_1rw 1632 128 R0
SYMATTR InstName X13
SYMBOL replica_cell_1rw 1632 272 R0
SYMATTR InstName X14
SYMBOL replica_cell_1rw 1632 416 R0
SYMATTR InstName X15
SYMBOL replica_cell_1rw 1632 560 R0
SYMATTR InstName X16
SYMBOL replica_cell_1rw 192 720 R0
SYMATTR InstName X17
