Version 4
SHEET 1 880 680
WIRE 352 -256 336 -256
WIRE 512 -256 352 -256
WIRE 688 -240 576 -240
WIRE 480 -224 -96 -224
WIRE 512 -224 480 -224
WIRE 480 -128 480 -224
WIRE 384 -96 272 -96
WIRE 688 -96 576 -96
WIRE 384 -64 272 -64
WIRE 688 -64 576 -64
WIRE -384 -32 -384 -64
WIRE 384 -32 272 -32
WIRE 688 -32 576 -32
WIRE 384 0 272 0
WIRE 688 0 576 0
WIRE -384 16 -384 -32
WIRE 384 32 272 32
WIRE 688 32 576 32
WIRE 384 64 272 64
WIRE 688 64 576 64
WIRE 0 96 -80 96
WIRE 384 96 272 96
WIRE 688 96 576 96
WIRE 0 128 -80 128
WIRE 384 128 272 128
WIRE 688 128 576 128
WIRE -384 160 -384 96
WIRE 0 160 -80 160
WIRE 384 160 272 160
WIRE 688 160 576 160
WIRE 0 192 -80 192
WIRE 384 192 272 192
WIRE 688 192 576 192
WIRE 384 224 272 224
WIRE 688 224 576 224
WIRE 384 256 272 256
WIRE 688 256 576 256
WIRE 384 288 272 288
WIRE 688 288 576 288
WIRE 384 320 272 320
WIRE 688 320 576 320
WIRE 384 352 272 352
WIRE 688 352 576 352
WIRE 384 384 272 384
WIRE 688 384 576 384
FLAG -80 96 addr_0
IOPIN -80 96 In
FLAG -80 128 addr_1
IOPIN -80 128 In
FLAG -80 160 addr_2
IOPIN -80 160 In
FLAG -80 192 addr_3
IOPIN -80 192 In
FLAG 688 -96 wl_0
IOPIN 688 -96 Out
FLAG 688 -64 wl_1
IOPIN 688 -64 Out
FLAG 688 -32 wl_2
IOPIN 688 -32 Out
FLAG 688 0 wl_3
IOPIN 688 0 Out
FLAG 688 32 wl_4
IOPIN 688 32 Out
FLAG 688 64 wl_5
IOPIN 688 64 Out
FLAG 688 96 wl_6
IOPIN 688 96 Out
FLAG 688 128 wl_7
IOPIN 688 128 Out
FLAG 688 160 wl_8
IOPIN 688 160 Out
FLAG 688 192 wl_9
IOPIN 688 192 Out
FLAG 688 224 wl_10
IOPIN 688 224 Out
FLAG 688 256 wl_11
IOPIN 688 256 Out
FLAG 688 288 wl_12
IOPIN 688 288 Out
FLAG 688 320 wl_13
IOPIN 688 320 Out
FLAG 688 352 wl_14
IOPIN 688 352 Out
FLAG 688 384 wl_15
IOPIN 688 384 Out
FLAG -96 -224 wl_en
IOPIN -96 -224 In
FLAG -384 160 0
FLAG 688 -240 rbl_wl
IOPIN 688 -240 Out
FLAG 352 -256 vdd
FLAG -384 -32 vdd
SYMBOL sram_16x2_hierarchical_decoder 128 144 R0
SYMATTR InstName Xrow_decoder
SYMBOL sram_16x2_wordline_driver_array 480 144 R0
SYMATTR InstName Xwordline_driver
SYMBOL sram_16x2_and2_dec_0 544 -240 R0
SYMATTR InstName Xrbl_driver
SYMBOL voltage -384 0 R0
SYMATTR InstName vdd
SYMATTR Value 5
