Version 4
SHEET 1 880 680
WIRE 80 80 32 80
WIRE 128 80 80 80
WIRE 320 96 240 96
WIRE 128 112 32 112
WIRE 80 208 80 80
WIRE 128 208 80 208
WIRE 320 224 240 224
WIRE 128 240 32 240
FLAG 32 112 din_0
IOPIN 32 112 In
FLAG 32 240 din_1
IOPIN 32 240 In
FLAG 320 96 dout_0
IOPIN 320 96 Out
FLAG 320 224 dout_1
IOPIN 320 224 Out
FLAG 32 80 clk
IOPIN 32 80 In
SYMBOL dff 160 112 R0
SYMATTR InstName X1
SYMBOL dff 160 240 R0
SYMATTR InstName X2
