Version 4
SHEET 1 1192 1028
WIRE 256 304 112 304
WIRE 256 336 112 336
WIRE 432 336 320 336
WIRE 608 336 496 336
WIRE 256 368 112 368
FLAG 112 304 A
IOPIN 112 304 In
FLAG 112 336 B
IOPIN 112 336 In
FLAG 112 368 C
IOPIN 112 368 In
FLAG 608 336 Z
IOPIN 608 336 Out
SYMBOL nand3 288 336 R0
SYMATTR InstName X1
SYMBOL inv 464 336 R0
SYMATTR InstName X2
