Version 4
SHEET 1 880 872
WIRE 64 128 32 128
WIRE 480 128 64 128
WIRE 64 208 64 128
WIRE 96 208 64 208
WIRE 480 208 480 128
WIRE 512 208 480 208
WIRE 240 224 208 224
WIRE 656 224 624 224
WIRE 96 240 32 240
WIRE 512 240 432 240
WIRE 64 320 64 208
WIRE 96 320 64 320
WIRE 480 320 480 208
WIRE 512 320 480 320
WIRE 240 336 208 336
WIRE 656 336 624 336
WIRE 96 352 32 352
WIRE 512 352 432 352
WIRE 64 432 64 320
WIRE 96 432 64 432
WIRE 480 432 480 320
WIRE 512 432 480 432
WIRE 240 448 208 448
WIRE 656 448 624 448
WIRE 96 464 32 464
WIRE 512 464 432 464
WIRE 64 544 64 432
WIRE 96 544 64 544
WIRE 480 544 480 432
WIRE 512 544 480 544
WIRE 240 560 208 560
WIRE 656 560 624 560
WIRE 96 576 32 576
WIRE 512 576 432 576
WIRE 64 656 64 544
WIRE 96 656 64 656
WIRE 240 672 208 672
WIRE 96 688 32 688
WIRE 64 768 64 656
WIRE 96 768 64 768
WIRE 240 784 208 784
WIRE 96 800 32 800
FLAG 32 128 clk
IOPIN 32 128 In
FLAG 32 240 csb
IOPIN 32 240 In
FLAG 240 224 csb_r
IOPIN 240 224 Out
FLAG 32 352 we
IOPIN 32 352 In
FLAG 240 336 we_r
IOPIN 240 336 Out
FLAG 32 464 addr0
IOPIN 32 464 In
FLAG 240 448 addr0_r
IOPIN 240 448 Out
FLAG 32 576 addr1
IOPIN 32 576 In
FLAG 240 560 addr1_r
IOPIN 240 560 Out
FLAG 32 688 addr2
IOPIN 32 688 In
FLAG 240 672 addr2_r
IOPIN 240 672 Out
FLAG 32 800 addr3
IOPIN 32 800 In
FLAG 240 784 addr3_r
IOPIN 240 784 Out
FLAG 432 240 din0
IOPIN 432 240 In
FLAG 656 224 din0_r
IOPIN 656 224 Out
FLAG 432 352 din1
IOPIN 432 352 In
FLAG 656 336 din1_r
IOPIN 656 336 Out
FLAG 432 464 din2
IOPIN 432 464 In
FLAG 656 448 din2_r
IOPIN 656 448 Out
FLAG 432 576 din3
IOPIN 432 576 In
FLAG 656 560 din3_r
IOPIN 656 560 Out
SYMBOL dff 128 240 R0
SYMATTR InstName X1
SYMBOL dff 128 464 R0
SYMATTR InstName X3
SYMBOL dff 128 576 R0
SYMATTR InstName X4
SYMBOL dff 128 688 R0
SYMATTR InstName X5
SYMBOL dff 128 800 R0
SYMATTR InstName X6
SYMBOL dff 544 240 R0
SYMATTR InstName X7
SYMBOL dff 544 352 R0
SYMATTR InstName X8
SYMBOL dff 544 464 R0
SYMATTR InstName X9
SYMBOL dff 544 576 R0
SYMATTR InstName X10
SYMBOL dff 128 352 R0
SYMATTR InstName X2
