Version 4
SHEET 1 880 680
WIRE 112 176 48 176
WIRE 224 192 176 192
WIRE 320 192 288 192
WIRE 112 208 48 208
FLAG 48 176 A
IOPIN 48 176 In
FLAG 48 208 B
IOPIN 48 208 In
FLAG 320 192 Z
IOPIN 320 192 Out
SYMBOL nor2 144 192 R0
SYMATTR InstName X1
SYMBOL inv 256 192 R0
SYMATTR InstName X2
