Version 4
SHEET 1 880 680
WIRE 112 80 -48 80
WIRE 320 80 112 80
WIRE 112 112 112 80
WIRE 320 112 320 80
WIRE 32 160 32 32
WIRE 48 160 32 160
WIRE 192 160 192 32
WIRE 192 160 176 160
WIRE 240 160 240 32
WIRE 256 160 240 160
WIRE 400 160 400 32
WIRE 400 160 384 160
WIRE 112 208 -48 208
WIRE 320 208 112 208
WIRE 112 240 112 208
WIRE 320 240 320 208
WIRE 32 288 32 160
WIRE 48 288 32 288
WIRE 192 288 192 160
WIRE 192 288 176 288
WIRE 240 288 240 160
WIRE 256 288 240 288
WIRE 400 288 400 160
WIRE 400 288 384 288
WIRE 32 352 32 288
WIRE 192 352 192 288
WIRE 240 352 240 288
WIRE 400 352 400 288
FLAG 32 352 BL[0]
IOPIN 32 352 BiDir
FLAG 240 352 BL[1]
IOPIN 240 352 BiDir
FLAG 192 352 BLB[0]
IOPIN 192 352 BiDir
FLAG 400 352 BLB[1]
IOPIN 400 352 BiDir
FLAG -48 80 WL[0]
IOPIN -48 80 In
FLAG -48 208 WL[1]
IOPIN -48 208 In
SYMBOL MCB 112 144 R0
SYMATTR InstName X1
SYMBOL MCB 320 144 R0
SYMATTR InstName X2
SYMBOL MCB 112 272 R0
SYMATTR InstName X3
SYMBOL MCB 320 272 R0
SYMATTR InstName X4
