Version 4
SHEET 1 1844 680
WIRE 1088 -176 704 -176
WIRE 1520 -176 1088 -176
WIRE 80 -96 16 -96
WIRE 128 -96 80 -96
WIRE 1104 -80 928 -80
WIRE 1296 -80 1104 -80
WIRE 128 -48 128 -96
WIRE 928 -16 928 -80
WIRE 1296 -16 1296 -80
WIRE 928 32 816 32
WIRE 1408 32 1296 32
WIRE 80 48 16 48
WIRE 128 48 80 48
WIRE 1040 64 976 64
WIRE 1248 64 1184 64
WIRE 64 96 64 16
WIRE 64 96 32 96
WIRE 192 96 192 16
WIRE 224 96 192 96
WIRE 928 128 928 80
WIRE 1184 128 1184 64
WIRE 1184 128 928 128
WIRE 704 144 704 -176
WIRE 1520 144 1520 -176
WIRE 64 160 64 96
WIRE 64 160 48 160
WIRE 80 160 64 160
WIRE 192 160 192 96
WIRE 192 160 176 160
WIRE 208 160 192 160
WIRE 624 192 448 192
WIRE 816 192 720 192
WIRE 928 192 928 128
WIRE 928 192 816 192
WIRE 1296 192 1296 80
WIRE 1408 192 1296 192
WIRE 1504 192 1408 192
WIRE 1760 192 1600 192
WIRE 96 224 16 224
WIRE 128 224 96 224
WIRE 672 224 672 192
WIRE 1552 224 1552 192
WIRE 128 240 128 224
WIRE 1040 240 1040 64
WIRE 1296 240 1296 192
WIRE 1296 240 1040 240
WIRE 64 272 64 160
WIRE 192 272 192 160
WIRE 928 272 928 192
WIRE 1296 272 1296 240
WIRE 928 320 880 320
WIRE 1344 320 1296 320
WIRE 1040 352 1040 240
WIRE 1040 352 976 352
WIRE 1184 352 1184 128
WIRE 1248 352 1184 352
WIRE 128 368 128 304
WIRE 928 432 928 368
WIRE 1104 432 928 432
WIRE 1296 432 1296 368
WIRE 1296 432 1104 432
WIRE 96 448 -16 448
WIRE 128 448 96 448
WIRE 48 464 48 160
WIRE 128 464 128 448
WIRE 208 464 208 160
WIRE 1104 480 1104 432
WIRE 128 560 128 528
FLAG -64 48 0
FLAG 288 96 0
FLAG -32 96 0
FLAG 64 96 bl
FLAG 192 96 br
FLAG 128 368 dout
FLAG -64 -96 0
FLAG -64 224 0
FLAG 128 640 0
FLAG -96 448 0
FLAG 96 224 sa
FLAG 80 -96 p
FLAG 80 48 wl
FLAG 96 448 we
FLAG 1104 480 0
FLAG 1104 -80 vdd
FLAG 1344 320 0
FLAG 880 320 0
FLAG 1552 224 0
FLAG 672 224 0
FLAG 816 32 vdd
FLAG 1408 32 vdd
FLAG 448 192 bl
FLAG 1088 -176 wl
FLAG 1760 192 br
FLAG 816 192 q
FLAG 1408 192 qr
SYMBOL voltage 32 48 R90
WINDOW 0 -32 56 VBottom 2
WINDOW 3 -82 209 VTop 2
SYMATTR InstName V3
SYMATTR Value PWL(0 0 4.95u 0 5.05u 3.3 9.95u 3.3 10.05u 0 14.95u 0 15.05u 3.3 17.95u 3.3 18.05u 0  24.95u 0 25.05u 3.3 29.95u 3.3 30.05u 0 34.95u 0 35.05u 3.3 37.95u 3.3 38.05u 0 )
SYMBOL precharge 128 -16 R0
SYMATTR InstName X2
SYMBOL cap 224 112 R270
WINDOW 0 32 32 VTop 2
WINDOW 3 0 32 VBottom 2
SYMATTR InstName C1
SYMATTR Value 500p
SYMBOL cap 32 80 R90
WINDOW 0 0 32 VBottom 2
WINDOW 3 32 32 VTop 2
SYMATTR InstName C2
SYMATTR Value 500p
SYMBOL sense_amp 128 288 R0
SYMATTR InstName X3
SYMBOL voltage 32 -96 R90
WINDOW 0 -32 56 VBottom 2
WINDOW 3 -84 58 VTop 2
WINDOW 123 0 0 Left 0
WINDOW 39 0 0 Left 0
SYMATTR InstName V1
SYMATTR Value PWL(0 3.3 9.95u 3.3 10.05u 0 14.95u 0 15.05u 3.3 29.95u 3.3 30.05u 0 34.95u 0 35.05u 3.3)
SYMBOL voltage 32 224 R90
WINDOW 0 -32 56 VBottom 2
WINDOW 3 -87 212 VTop 2
WINDOW 123 0 0 Left 0
WINDOW 39 0 0 Left 0
SYMATTR InstName V2
SYMATTR Value PWL(0u 0 17.95u 0 18.05u 3.3 19.95u 3.3 20.05u 0 37.95u 0 38.05u 3.3 39.95u 3.3 40.05u 0)
SYMBOL write_driver 128 496 R0
SYMATTR InstName X4
SYMBOL voltage 128 544 R0
WINDOW 123 0 0 Left 0
WINDOW 39 0 0 Left 0
SYMATTR InstName V4
SYMATTR Value PWL(0u 0 14.95u 0 15.05u 3.3)
SYMBOL voltage 0 448 R90
WINDOW 0 -32 56 VBottom 2
WINDOW 3 -87 212 VTop 2
WINDOW 123 0 0 Left 0
WINDOW 39 0 0 Left 0
SYMATTR InstName V5
SYMATTR Value PWL(0u 3.3 4.95u 3.3 5.05u 0 19.95u 0 20.05u 3.3 24.95u 3.3 25.05u 0)
SYMBOL pmos4 1248 -16 R0
WINDOW 123 56 100 Left 2
SYMATTR Value2 l=0.8u w=0.6u
SYMATTR InstName M1
SYMATTR Value p
SYMBOL pmos4 976 -16 M0
WINDOW 123 56 100 Left 2
SYMATTR Value2 l=0.8u w=0.6u
SYMATTR InstName M2
SYMATTR Value p
SYMBOL nmos4 1248 272 R0
WINDOW 123 56 100 Left 2
SYMATTR Value2 l=0.4u w=1.6u
SYMATTR InstName M3
SYMATTR Value n
SYMBOL nmos4 976 272 M0
WINDOW 123 56 100 Left 2
SYMATTR Value2 l=0.4u w=1.6u
SYMATTR InstName M4
SYMATTR Value n
SYMBOL nmos4 1600 144 R90
WINDOW 123 56 100 Left 2
SYMATTR Value2 l=0.4u w=0.8u
SYMATTR InstName M5
SYMBOL nmos4 624 144 M90
WINDOW 123 56 100 Left 2
SYMATTR Value2 l=0.4u w=0.8u
SYMATTR InstName M6
TEXT -376 472 Left 2 !.tran 45u
TEXT 1584 408 Left 2 !.include models.sp
