Version 4
SHEET 1 1900 1816
WIRE -1328 240 -1344 240
WIRE -1264 240 -1328 240
WIRE -1072 256 -1152 256
WIRE -1008 256 -1072 256
WIRE -1424 272 -1440 272
WIRE -1264 272 -1424 272
WIRE -1440 352 -1440 272
WIRE -1344 352 -1344 240
WIRE -1440 464 -1440 432
WIRE -1344 464 -1344 432
FLAG -1440 464 0
FLAG -1344 464 0
FLAG -1424 272 D
FLAG -1072 256 Q
FLAG -1328 240 clk
SYMBOL voltage -1440 336 R0
WINDOW 0 -37 164 Left 2
WINDOW 3 -112 -189 Left 2
WINDOW 123 0 0 Left 0
WINDOW 39 0 0 Left 0
SYMATTR InstName Vwe
SYMATTR Value PWL(0u 3.3 9.95u 3.3v 10.05u 0v 17.95u 0v 18.05u 3.3v)
SYMBOL voltage -1344 336 R0
WINDOW 0 -26 165 Left 2
WINDOW 3 -28 191 Left 2
WINDOW 123 0 0 Left 0
WINDOW 39 0 0 Left 0
SYMATTR InstName Vclk
SYMATTR Value PULSE(0 3.3 5u 0.1u 0.1u 5u 10u)
SYMBOL dff -1232 272 R0
SYMATTR InstName X1
TEXT -1554 548 Left 2 !.tran 45u
