Version 4
SHEET 1 1032 764
WIRE 0 80 -16 80
WIRE 192 80 0 80
WIRE 880 80 192 80
WIRE 0 128 0 80
WIRE 16 128 0 128
WIRE 368 128 80 128
WIRE 560 128 368 128
WIRE 752 128 560 128
WIRE 880 128 752 128
WIRE 0 176 -16 176
WIRE 720 176 0 176
WIRE 880 176 720 176
WIRE 0 224 0 176
WIRE 16 224 0 224
WIRE 528 224 80 224
WIRE 880 224 528 224
WIRE 16 320 -16 320
WIRE 160 320 80 320
WIRE 336 320 160 320
WIRE 496 320 336 320
WIRE 688 320 496 320
WIRE 880 320 688 320
WIRE 160 400 160 320
WIRE 192 400 192 80
WIRE 336 400 336 320
WIRE 368 400 368 128
WIRE 496 400 496 320
WIRE 528 400 528 224
WIRE 560 400 560 128
WIRE 688 400 688 320
WIRE 720 400 720 176
WIRE 752 400 752 128
WIRE 176 496 176 464
WIRE 176 592 176 560
WIRE 352 592 352 464
WIRE 528 592 528 464
WIRE 720 592 720 464
FLAG 720 592 we_en
IOPIN 720 592 Out
FLAG 352 592 wl_en
IOPIN 352 592 Out
FLAG 176 592 p_bar_en
IOPIN 176 592 Out
FLAG 528 592 sa_en
IOPIN 528 592 Out
FLAG -16 80 clk
IOPIN -16 80 In
FLAG -16 176 we
IOPIN -16 176 In
FLAG -16 320 csb
IOPIN -16 320 In
SYMBOL inv 48 128 R0
SYMATTR InstName X2
SYMBOL inv 48 224 R0
SYMATTR InstName X3
SYMBOL inv 48 320 R0
SYMATTR InstName X4
SYMBOL inv 176 528 R90
SYMATTR InstName X5
SYMBOL and3 528 432 R90
SYMATTR InstName X6
SYMBOL and2 352 432 R90
SYMATTR InstName X7
SYMBOL and3 720 432 R90
SYMATTR InstName X8
SYMBOL and2 176 432 R90
SYMATTR InstName X1
