Version 4
SHEET 1 1336 764
WIRE 32 16 -16 16
WIRE 144 16 96 16
WIRE 256 16 208 16
WIRE 672 16 320 16
WIRE 960 16 672 16
WIRE 1104 16 960 16
WIRE 0 80 -16 80
WIRE 208 80 0 80
WIRE 384 80 208 80
WIRE 1104 80 384 80
WIRE 0 128 0 80
WIRE 16 128 0 128
WIRE 640 128 80 128
WIRE 880 128 640 128
WIRE 1104 128 880 128
WIRE 0 176 -16 176
WIRE 352 176 0 176
WIRE 1104 176 352 176
WIRE 0 224 0 176
WIRE 16 224 0 224
WIRE 176 224 80 224
WIRE 608 224 176 224
WIRE 928 224 608 224
WIRE 1104 224 928 224
WIRE 16 320 -16 320
WIRE 144 320 80 320
WIRE 320 320 144 320
WIRE 544 320 320 320
WIRE 848 320 544 320
WIRE 1104 320 848 320
WIRE 144 400 144 320
WIRE 176 400 176 224
WIRE 208 400 208 80
WIRE 320 400 320 320
WIRE 352 400 352 176
WIRE 384 400 384 80
WIRE 608 400 608 224
WIRE 640 400 640 128
WIRE 672 400 672 16
WIRE 928 400 928 224
WIRE 960 400 960 16
WIRE 640 480 640 464
WIRE 640 480 576 480
WIRE 944 480 944 464
WIRE 944 480 912 480
WIRE 176 496 176 464
WIRE 544 512 544 320
WIRE 576 512 576 480
WIRE 848 512 848 320
WIRE 880 512 880 128
WIRE 912 512 912 480
WIRE 176 592 176 560
WIRE 352 624 352 464
WIRE 560 624 560 576
WIRE 880 624 880 576
FLAG 352 624 we_en
IOPIN 352 624 Out
FLAG 880 624 wl_en
IOPIN 880 624 Out
FLAG 176 592 p_bar_en
IOPIN 176 592 Out
FLAG 560 624 sa_en
IOPIN 560 624 Out
FLAG -16 80 clk
IOPIN -16 80 In
FLAG -16 176 we
IOPIN -16 176 In
FLAG -16 320 csb
IOPIN -16 320 In
FLAG -16 16 rbl
IOPIN -16 16 In
SYMBOL inv 48 128 R0
SYMATTR InstName X2
SYMBOL inv 48 224 R0
SYMATTR InstName X3
SYMBOL inv 48 320 R0
SYMATTR InstName X4
SYMBOL inv 176 528 R90
SYMATTR InstName X5
SYMBOL and3 880 544 R90
SYMATTR InstName X6
SYMBOL and3 352 432 R90
SYMATTR InstName X8
SYMBOL and3 176 432 R90
SYMATTR InstName X1
SYMBOL inv 64 16 R0
SYMATTR InstName X9
SYMBOL inv 176 16 R0
SYMATTR InstName X10
SYMBOL inv 288 16 R0
SYMATTR InstName X11
SYMBOL and3 640 432 R90
SYMATTR InstName X12
SYMBOL and2 560 544 R90
SYMATTR InstName X13
SYMBOL nand2 944 432 R90
SYMATTR InstName X7
