Version 4
SHEET 1 1940 864
WIRE 1104 -64 128 -64
WIRE 128 16 128 -64
WIRE 128 16 -16 16
WIRE 320 16 128 16
WIRE 672 16 384 16
WIRE 1360 16 672 16
WIRE 0 80 -16 80
WIRE 208 80 0 80
WIRE 1456 80 208 80
WIRE 0 128 0 80
WIRE 16 128 0 128
WIRE 640 128 80 128
WIRE 1072 128 640 128
WIRE 1456 128 1072 128
WIRE 0 176 -16 176
WIRE 368 176 0 176
WIRE 928 176 368 176
WIRE 1456 176 928 176
WIRE 0 224 0 176
WIRE 16 224 0 224
WIRE 176 224 80 224
WIRE 608 224 176 224
WIRE 1456 224 608 224
WIRE 1456 272 0 272
WIRE 0 320 0 272
WIRE 0 320 -16 320
WIRE 16 320 0 320
WIRE 144 320 80 320
WIRE 336 320 144 320
WIRE 544 320 336 320
WIRE 896 320 544 320
WIRE 1040 320 896 320
WIRE 1456 320 1040 320
WIRE 144 400 144 320
WIRE 176 400 176 224
WIRE 208 400 208 80
WIRE 336 400 336 320
WIRE 368 400 368 176
WIRE 608 400 608 224
WIRE 640 400 640 128
WIRE 672 400 672 16
WIRE 896 400 896 320
WIRE 928 400 928 176
WIRE 1040 400 1040 320
WIRE 1072 400 1072 128
WIRE 1104 400 1104 -64
WIRE 640 480 640 464
WIRE 640 480 576 480
WIRE 912 480 912 464
WIRE 976 480 912 480
WIRE 1072 480 1072 464
WIRE 1072 480 1008 480
WIRE 176 496 176 464
WIRE 544 512 544 320
WIRE 576 512 576 480
WIRE 976 512 976 480
WIRE 1008 512 1008 480
WIRE 176 592 176 560
WIRE 352 624 352 464
WIRE 560 624 560 576
WIRE 992 624 992 576
FLAG 352 624 we_en
IOPIN 352 624 Out
FLAG 176 592 p_bar_en
IOPIN 176 592 Out
FLAG 560 624 sa_en
IOPIN 560 624 Out
FLAG -16 80 clk
IOPIN -16 80 In
FLAG -16 176 we
IOPIN -16 176 In
FLAG -16 320 csb
IOPIN -16 320 In
FLAG -16 16 rbl
IOPIN -16 16 In
FLAG 992 624 wl_en
IOPIN 992 624 Out
SYMBOL inv 48 128 R0
SYMATTR InstName X2
SYMBOL inv 48 224 R0
SYMATTR InstName X3
SYMBOL inv 48 320 R0
SYMATTR InstName X4
SYMBOL inv 176 528 R90
SYMATTR InstName X5
SYMBOL and3 176 432 R90
SYMATTR InstName X1
SYMBOL and3 640 432 R90
SYMATTR InstName X12
SYMBOL and2 560 544 R90
SYMATTR InstName X13
SYMBOL nand2 912 432 R90
SYMATTR InstName X6
SYMBOL nand3 1072 432 R90
SYMATTR InstName X7
SYMBOL nand2 992 544 R90
SYMATTR InstName X10
SYMBOL inv 352 16 R0
SYMATTR InstName X9
SYMBOL and2 352 432 R90
SYMATTR InstName X8
TEXT 24 -168 Left 2 ;wl_en = csb & ( we | (~clk & rbl)  ) = (csb & we) | (csb & ~clk & rbl) = ~( (~(csb & we)) & (~(csb & ~clk & rbl)) )
TEXT 24 -120 Left 2 ;sa_en = cs & ~we & ~clk & ~rbl = ~(csb | we | clk | rbl) = ~( (csb | we) | (clk | rbl) )
