Version 4
SHEET 1 1568 680
WIRE 240 -80 240 -176
WIRE 240 -80 192 -80
WIRE 288 -80 240 -80
WIRE 496 -80 496 -176
WIRE 496 -80 448 -80
WIRE 544 -80 496 -80
WIRE 864 -80 864 -176
WIRE 864 -80 816 -80
WIRE 912 -80 864 -80
WIRE 1120 -80 1120 -176
WIRE 1120 -80 1072 -80
WIRE 1168 -80 1120 -80
WIRE 192 -32 192 -80
WIRE 288 -32 288 -80
WIRE 448 -32 448 -80
WIRE 544 -32 544 -80
WIRE 816 -32 816 -80
WIRE 912 -32 912 -80
WIRE 1072 -32 1072 -80
WIRE 1168 -32 1168 -80
WIRE 224 16 192 16
WIRE 544 16 512 16
WIRE 912 16 880 16
WIRE 1104 16 1072 16
WIRE -80 48 -112 48
WIRE 32 48 -80 48
WIRE 144 48 32 48
WIRE 352 48 336 48
WIRE 400 48 352 48
WIRE 656 48 592 48
WIRE 768 48 656 48
WIRE 992 48 960 48
WIRE 1024 48 992 48
WIRE 1232 48 1216 48
WIRE -80 112 -80 48
WIRE -48 112 -80 112
WIRE 48 112 16 112
WIRE 192 112 192 64
WIRE 240 112 192 112
WIRE 288 112 288 64
WIRE 288 112 240 112
WIRE 448 112 448 64
WIRE 496 112 448 112
WIRE 544 112 544 64
WIRE 544 112 496 112
WIRE 816 112 816 64
WIRE 864 112 816 112
WIRE 912 112 912 64
WIRE 912 112 864 112
WIRE 1072 112 1072 64
WIRE 1120 112 1072 112
WIRE 1168 112 1168 64
WIRE 1168 112 1120 112
WIRE 240 192 240 112
WIRE 864 192 864 112
WIRE 864 192 240 192
WIRE 1408 192 1408 128
WIRE 1408 256 1408 192
WIRE 496 272 496 112
WIRE 1120 272 1120 112
WIRE 1120 272 496 272
WIRE 1408 400 1408 336
WIRE 240 512 240 192
WIRE 496 512 496 272
FLAG 1408 400 0
FLAG 1408 192 vdd
FLAG -112 48 sel_0
IOPIN -112 48 In
FLAG 240 -176 bl_0
IOPIN 240 -176 In
FLAG 496 -176 br_0
IOPIN 496 -176 In
FLAG 864 -176 bl_1
IOPIN 864 -176 In
FLAG 1120 -176 br_1
IOPIN 1120 -176 In
FLAG 240 512 bl
IOPIN 240 512 Out
FLAG 496 512 br
IOPIN 496 512 Out
FLAG 288 16 0
FLAG 224 16 vdd
FLAG 448 16 0
FLAG 512 16 vdd
FLAG 48 112 sb
FLAG 352 48 sb
FLAG 816 16 0
FLAG 880 16 vdd
FLAG 32 48 s
FLAG 656 48 s
FLAG 992 48 sb
FLAG 1168 16 0
FLAG 1104 16 vdd
FLAG 1232 48 s
SYMBOL voltage 1408 240 R0
WINDOW 123 0 0 Left 0
WINDOW 39 0 0 Left 0
SYMATTR InstName vdd
SYMATTR Value 3.3
SYMBOL inv -16 112 R0
SYMATTR InstName X1
SYMBOL pmos4 144 -32 R0
WINDOW 123 4 118 Left 2
SYMATTR Value2 l=0.4u w=9.6u
SYMATTR InstName M5
SYMATTR Value p
SYMBOL nmos4 336 -32 M0
WINDOW 123 12 -23 Left 2
SYMATTR Value2 l=0.4u w=4.8u
SYMATTR InstName M6
SYMATTR Value n
SYMBOL pmos4 592 -32 M0
WINDOW 123 4 118 Left 2
SYMATTR Value2 l=0.4u w=9.6u
SYMATTR InstName M1
SYMATTR Value p
SYMBOL nmos4 400 -32 R0
WINDOW 123 12 -23 Left 2
SYMATTR Value2 l=0.4u w=4.8u
SYMATTR InstName M2
SYMATTR Value n
SYMBOL pmos4 960 -32 M0
WINDOW 123 4 118 Left 2
SYMATTR Value2 l=0.4u w=9.6u
SYMATTR InstName M7
SYMATTR Value p
SYMBOL nmos4 768 -32 R0
WINDOW 123 12 -23 Left 2
SYMATTR Value2 l=0.4u w=4.8u
SYMATTR InstName M8
SYMATTR Value n
SYMBOL pmos4 1024 -32 R0
WINDOW 123 4 118 Left 2
SYMATTR Value2 l=0.4u w=9.6u
SYMATTR InstName M3
SYMATTR Value p
SYMBOL nmos4 1216 -32 M0
WINDOW 123 12 -23 Left 2
SYMATTR Value2 l=0.4u w=4.8u
SYMATTR InstName M4
SYMATTR Value n
TEXT 1352 496 Left 2 !.include models.sp
