Version 4
SHEET 1 1316 680
WIRE 240 112 240 16
WIRE 464 112 464 16
WIRE 272 160 240 160
WIRE 496 160 464 160
WIRE 0 192 -32 192
WIRE 192 192 0 192
WIRE 416 192 192 192
WIRE 1232 192 1232 128
WIRE 672 224 672 16
WIRE 896 224 896 16
WIRE 1232 256 1232 192
WIRE 720 272 672 272
WIRE 944 272 896 272
WIRE 0 304 0 192
WIRE 32 304 0 304
WIRE 624 304 96 304
WIRE 848 304 624 304
WIRE 240 368 240 208
WIRE 672 368 672 320
WIRE 672 368 240 368
WIRE 464 400 464 208
WIRE 896 400 896 320
WIRE 896 400 464 400
WIRE 1232 400 1232 336
WIRE 240 512 240 368
WIRE 464 512 464 400
FLAG 1232 400 0
FLAG 1232 192 vdd
FLAG 272 160 vdd
FLAG 496 160 vdd
FLAG 720 272 vdd
FLAG 944 272 vdd
FLAG -32 192 sel_0
IOPIN -32 192 In
FLAG 240 16 bl_0
IOPIN 240 16 In
FLAG 464 16 br_0
IOPIN 464 16 In
FLAG 672 16 bl_1
IOPIN 672 16 In
FLAG 896 16 br_1
IOPIN 896 16 In
FLAG 240 512 bl
IOPIN 240 512 Out
FLAG 464 512 br
IOPIN 464 512 Out
SYMBOL voltage 1232 240 R0
WINDOW 123 0 0 Left 0
WINDOW 39 0 0 Left 0
SYMATTR InstName vdd
SYMATTR Value 3.3
SYMBOL pmos4 192 112 R0
WINDOW 123 56 100 Left 2
SYMATTR Value2 l=0.4u w=4.8u
SYMATTR InstName M1
SYMATTR Value p
SYMBOL pmos4 416 112 R0
WINDOW 123 56 100 Left 2
SYMATTR Value2 l=0.4u w=4.8u
SYMATTR InstName M2
SYMATTR Value p
SYMBOL pmos4 624 224 R0
WINDOW 123 56 100 Left 2
SYMATTR Value2 l=0.4u w=4.8u
SYMATTR InstName M3
SYMATTR Value p
SYMBOL pmos4 848 224 R0
WINDOW 123 56 100 Left 2
SYMATTR Value2 l=0.4u w=4.8u
SYMATTR InstName M4
SYMATTR Value p
SYMBOL inv 64 304 R0
SYMATTR InstName X1
TEXT 1000 512 Left 2 !.include models.sp
