Version 4
SHEET 1 1160 680
WIRE 288 80 208 80
WIRE 400 112 208 112
WIRE 512 144 208 144
WIRE 32 160 -16 160
WIRE 624 176 208 176
WIRE 32 192 -16 192
WIRE 736 208 208 208
WIRE 32 224 -16 224
WIRE 848 240 208 240
WIRE 960 272 208 272
WIRE 1072 304 208 304
WIRE 320 352 -16 352
WIRE 432 352 320 352
WIRE 544 352 432 352
WIRE 656 352 544 352
WIRE 768 352 656 352
WIRE 880 352 768 352
WIRE 992 352 880 352
WIRE 1104 352 992 352
WIRE 288 368 288 80
WIRE 320 368 320 352
WIRE 400 368 400 112
WIRE 432 368 432 352
WIRE 512 368 512 144
WIRE 544 368 544 352
WIRE 624 368 624 176
WIRE 656 368 656 352
WIRE 736 368 736 208
WIRE 768 368 768 352
WIRE 848 368 848 240
WIRE 880 368 880 352
WIRE 960 368 960 272
WIRE 992 368 992 352
WIRE 1072 368 1072 304
WIRE 1104 368 1104 352
WIRE 304 480 304 432
WIRE 416 480 416 432
WIRE 528 480 528 432
WIRE 640 480 640 432
WIRE 752 480 752 432
WIRE 864 480 864 432
WIRE 976 480 976 432
WIRE 1088 480 1088 432
FLAG -16 352 wl_en
IOPIN -16 352 In
FLAG -16 160 in_0
IOPIN -16 160 In
FLAG -16 192 in_1
IOPIN -16 192 In
FLAG -16 224 in_2
IOPIN -16 224 In
FLAG 304 480 out_0
IOPIN 304 480 Out
FLAG 416 480 out_1
IOPIN 416 480 Out
FLAG 528 480 out_2
IOPIN 528 480 Out
FLAG 640 480 out_3
IOPIN 640 480 Out
FLAG 752 480 out_4
IOPIN 752 480 Out
FLAG 864 480 out_5
IOPIN 864 480 Out
FLAG 976 480 out_6
IOPIN 976 480 Out
FLAG 1088 480 out_7
IOPIN 1088 480 Out
SYMBOL decoder38 112 192 R0
SYMATTR InstName X1
SYMBOL and2 304 400 R90
SYMATTR InstName X2
SYMBOL and2 416 400 R90
SYMATTR InstName X3
SYMBOL and2 528 400 R90
SYMATTR InstName X4
SYMBOL and2 640 400 R90
SYMATTR InstName X5
SYMBOL and2 752 400 R90
SYMATTR InstName X6
SYMBOL and2 864 400 R90
SYMATTR InstName X7
SYMBOL and2 976 400 R90
SYMATTR InstName X8
SYMBOL and2 1088 400 R90
SYMATTR InstName X9
