Version 4
SHEET 1 880 680
WIRE 624 -624 624 -688
WIRE -224 -608 -224 -880
WIRE -224 -608 -272 -608
WIRE -176 -608 -224 -608
WIRE 288 -608 288 -880
WIRE 288 -608 240 -608
WIRE 336 -608 288 -608
WIRE -272 -560 -272 -608
WIRE -176 -560 -176 -608
WIRE 240 -560 240 -608
WIRE 336 -560 336 -608
WIRE 624 -560 624 -624
WIRE -240 -512 -272 -512
WIRE 336 -512 304 -512
WIRE -544 -480 -608 -480
WIRE -496 -480 -544 -480
WIRE -368 -480 -432 -480
WIRE -320 -480 -368 -480
WIRE 32 -480 -128 -480
WIRE 192 -480 32 -480
WIRE 448 -480 384 -480
WIRE 480 -480 448 -480
WIRE -272 -416 -272 -464
WIRE -224 -416 -272 -416
WIRE -176 -416 -176 -464
WIRE -176 -416 -224 -416
WIRE 240 -416 240 -464
WIRE 288 -416 240 -416
WIRE 336 -416 336 -464
WIRE 336 -416 288 -416
WIRE 624 -416 624 -480
WIRE -496 -288 -608 -288
WIRE -224 -288 -224 -416
WIRE -224 -288 -432 -288
WIRE 0 -288 -224 -288
WIRE 288 -288 288 -416
WIRE 288 -288 64 -288
FLAG 624 -416 0
FLAG 624 -624 vdd
FLAG -608 -480 we
IOPIN -608 -480 In
FLAG -608 -288 data
IOPIN -608 -288 In
FLAG -224 -880 br
IOPIN -224 -880 In
FLAG 288 -880 bl
IOPIN 288 -880 In
FLAG -368 -480 web
FLAG 32 -480 we
FLAG -544 -480 we
FLAG 448 -480 web
FLAG -176 -512 0
FLAG 240 -512 0
FLAG 304 -512 vdd
FLAG -240 -512 vdd
SYMBOL voltage 624 -576 R0
WINDOW 123 0 0 Left 0
WINDOW 39 0 0 Left 0
SYMATTR InstName vdd
SYMATTR Value 3.3
SYMBOL pmos4 384 -560 M0
WINDOW 123 4 118 Left 2
SYMATTR Value2 l=0.4u w=9.6u
SYMATTR InstName M3
SYMATTR Value p
SYMBOL nmos4 192 -560 R0
WINDOW 123 12 -23 Left 2
SYMATTR Value2 l=0.4u w=4.8u
SYMATTR InstName M4
SYMATTR Value n
SYMBOL pmos4 -320 -560 R0
WINDOW 123 4 118 Left 2
SYMATTR Value2 l=0.4u w=9.6u
SYMATTR InstName M5
SYMATTR Value p
SYMBOL nmos4 -128 -560 M0
WINDOW 123 12 -23 Left 2
SYMATTR Value2 l=0.4u w=4.8u
SYMATTR InstName M6
SYMATTR Value n
SYMBOL inv -464 -480 R0
SYMATTR InstName X5
SYMBOL inv -464 -288 R0
SYMATTR InstName X6
SYMBOL inv 32 -288 R0
SYMATTR InstName X7
TEXT 528 -256 Left 2 !.include models.sp
