Version 4
SHEET 1 1940 1576
WIRE -400 512 -400 448
WIRE -400 576 -400 512
WIRE -400 720 -400 656
WIRE 656 784 656 528
WIRE 768 784 656 784
WIRE 400 832 -448 832
WIRE 768 848 768 784
WIRE 912 864 912 608
WIRE 1040 864 912 864
WIRE 704 880 672 880
WIRE 1040 880 1040 864
WIRE 256 896 -448 896
WIRE 400 896 400 832
WIRE 560 896 400 896
WIRE 864 896 832 896
WIRE 704 912 624 912
WIRE 864 912 864 896
WIRE 976 912 864 912
WIRE 560 928 368 928
WIRE 1200 928 1104 928
WIRE 912 992 912 864
WIRE 1040 992 912 992
WIRE 1040 1008 1040 992
WIRE 656 1024 656 784
WIRE 688 1024 656 1024
WIRE 400 1040 400 896
WIRE 448 1040 400 1040
WIRE 560 1040 512 1040
WIRE 976 1040 752 1040
WIRE 688 1056 624 1056
WIRE 1200 1056 1104 1056
WIRE 368 1072 368 928
WIRE 512 1072 368 1072
WIRE 560 1072 512 1072
WIRE 912 1216 912 992
WIRE 1040 1216 912 1216
WIRE 1040 1232 1040 1216
WIRE 656 1248 656 1024
WIRE 688 1248 656 1248
WIRE 256 1264 256 896
WIRE 304 1264 256 1264
WIRE 416 1264 368 1264
WIRE 976 1264 752 1264
WIRE 512 1280 512 1072
WIRE 512 1280 480 1280
WIRE 688 1280 512 1280
WIRE 1200 1280 1104 1280
WIRE 256 1296 256 1264
WIRE 416 1296 256 1296
WIRE 656 1376 656 1248
WIRE 912 1424 912 1216
WIRE 1040 1424 912 1424
WIRE 1040 1456 1040 1424
WIRE 656 1488 656 1440
WIRE 672 1488 672 880
WIRE 672 1488 656 1488
WIRE 976 1488 672 1488
WIRE 1200 1504 1104 1504
FLAG 1200 1056 sa_en
IOPIN 1200 1056 Out
FLAG 1200 928 wl_en
IOPIN 1200 928 Out
FLAG -400 720 0
FLAG -400 512 vdd
FLAG 1200 1280 p_bar_en
IOPIN 1200 1280 Out
FLAG -528 832 0
FLAG -528 896 0
FLAG 1200 1504 we_en
IOPIN 1200 1504 Out
FLAG 912 608 0
FLAG 976 944 0
FLAG 976 1072 0
FLAG 976 1520 0
FLAG 976 1296 vdd
FLAG 576 528 0
SYMBOL voltage -400 560 R0
WINDOW 123 0 0 Left 0
WINDOW 39 0 0 Left 0
SYMATTR InstName vdd1
SYMATTR Value 3.3
SYMBOL nand2 448 1280 R0
SYMATTR InstName X18
SYMBOL and2 592 912 R0
SYMATTR InstName X14
SYMBOL and2 592 1056 R0
SYMATTR InstName X23
SYMBOL inv 480 1040 R0
SYMATTR InstName X24
SYMBOL voltage -432 832 R90
WINDOW 0 -32 56 VBottom 2
WINDOW 3 32 56 VTop 2
WINDOW 123 0 0 Left 0
WINDOW 39 0 0 Left 0
SYMATTR InstName Vrbl
SYMATTR Value PWL(0.0n 3.3v 8.0n 3.3v 10n 0.0)
SYMBOL voltage -432 896 R90
WINDOW 0 -32 56 VBottom 2
WINDOW 3 32 56 VTop 2
SYMATTR InstName Vclk
SYMATTR Value PULSE(0 3.3 5n 0.1n 0.1n 5n 10n)
SYMBOL delay_chain 336 1264 R0
SYMATTR InstName X2
SYMBOL and2 720 1040 R0
SYMATTR InstName X1
SYMBOL and2 720 1264 R0
SYMATTR InstName X3
SYMBOL delay_chain 656 1408 R90
SYMATTR InstName X4
SYMBOL sel21 1040 944 R0
SYMATTR InstName X5
SYMBOL sel21 1040 1072 R0
SYMATTR InstName X6
SYMBOL sel21 1040 1296 R0
SYMATTR InstName X7
SYMBOL sel21 1040 1520 R0
SYMATTR InstName X8
SYMBOL voltage 672 528 R90
WINDOW 0 -32 56 VBottom 2
WINDOW 3 32 56 VTop 2
WINDOW 123 0 0 Left 0
WINDOW 39 0 0 Left 0
SYMATTR InstName Vrbl1
SYMATTR Value PWL(0.0n 3.3v 14.95n 3.3v 15.05n 0)
SYMBOL sel21 768 912 R0
SYMATTR InstName X9
TEXT -624 1064 Left 2 !.tran 30n
