Version 4
SHEET 1 2472 1352
WIRE 320 -176 288 -176
WIRE 368 -176 320 -176
WIRE 480 -176 432 -176
WIRE 608 -160 544 -160
WIRE 320 -144 320 -176
WIRE 480 -144 320 -144
WIRE 288 16 288 -16
WIRE 320 16 288 16
WIRE 480 16 480 -16
WIRE 512 16 480 16
WIRE 576 16 576 -16
WIRE 608 16 576 16
WIRE 320 48 320 16
WIRE 512 48 512 16
WIRE 608 48 608 16
WIRE 384 240 384 -16
WIRE 768 240 384 240
WIRE 848 256 832 256
WIRE 480 272 480 16
WIRE 768 272 480 272
WIRE 848 272 848 256
WIRE 864 272 848 272
WIRE 960 288 928 288
WIRE 1152 288 1024 288
WIRE 576 304 576 16
WIRE 864 304 576 304
WIRE 384 400 384 240
WIRE 768 400 384 400
WIRE 848 416 832 416
WIRE 480 432 480 272
WIRE 768 432 480 432
WIRE 848 448 848 416
WIRE 864 448 848 448
WIRE 960 464 928 464
WIRE 1152 464 1024 464
WIRE 864 480 848 480
WIRE 608 512 608 112
WIRE 768 512 608 512
WIRE 848 528 848 480
WIRE 848 528 832 528
WIRE 288 544 288 16
WIRE 768 544 288 544
WIRE 288 672 288 544
WIRE 768 672 288 672
WIRE 576 704 576 304
WIRE 768 704 576 704
WIRE 960 704 832 704
WIRE 1152 704 1024 704
WIRE 384 736 384 400
WIRE 768 736 384 736
WIRE 320 880 320 112
WIRE 768 880 320 880
WIRE 960 896 832 896
WIRE 1152 896 1024 896
WIRE 384 912 384 736
WIRE 768 912 384 912
WIRE 288 1056 288 672
WIRE 320 1056 320 880
WIRE 384 1056 384 912
WIRE 480 1056 480 432
WIRE 512 1056 512 112
WIRE 576 1056 576 704
WIRE 608 1056 608 512
FLAG 288 -176 clk
IOPIN 288 -176 In
FLAG 608 -160 iclk
FLAG 288 -16 csb
IOPIN 288 -16 In
FLAG 384 -16 we
IOPIN 384 -16 In
FLAG 480 -16 rbl
IOPIN 480 -16 In
FLAG 576 -16 iclk
FLAG 1152 464 sa_en
IOPIN 1152 464 Out
FLAG 1152 288 wl_en
IOPIN 1152 288 Out
FLAG 1152 704 p_bar_en
IOPIN 1152 704 Out
FLAG 1152 896 we_en
IOPIN 1152 896 Out
SYMBOL delay_chain 400 -176 R0
WINDOW 0 -11 62 Bottom 2
SYMATTR InstName Xdelay_chain
SYMBOL nand2 512 -160 R0
SYMATTR InstName Xnand2
SYMBOL inv 320 80 R90
SYMATTR InstName X17
SYMBOL inv 512 80 R90
SYMATTR InstName X20
SYMBOL inv_power 992 288 R0
SYMATTR InstName X21
SYMBOL or2 800 256 R0
SYMATTR InstName X22
SYMBOL nand2 896 288 R0
SYMATTR InstName X23
SYMBOL nor2 800 416 R0
SYMATTR InstName X24
SYMBOL nor2 800 528 R0
SYMATTR InstName X25
SYMBOL nand2 896 464 R0
SYMATTR InstName X27
SYMBOL inv_power 992 464 R0
SYMATTR InstName X26
SYMBOL inv 608 80 R90
SYMATTR InstName X29
SYMBOL nor3 800 704 R0
SYMATTR InstName X28
SYMBOL inv_power 992 704 R0
SYMATTR InstName X30
SYMBOL nand2 800 896 R0
SYMATTR InstName X31
SYMBOL inv_power 992 896 R0
SYMATTR InstName X32
TEXT 688 0 Left 2 ;wl_en = (iclk & we)  | (rbl & iclk & ~we)\n          = iclk & ( we | (rbl & ~we) )\n          = iclk & (we | rbl )
TEXT 1192 -8 Left 2 ;sa_en =~ we & ~rbl & iclk & ~csb\n           = ~( we |  rbl ) & ~( ~iclk | csb )\n           = ~( ( we |  rbl ) | ( ~iclk | csb ) )
TEXT 696 120 Left 2 ;p_bar_en = csb | iclk | we
TEXT 1208 112 Left 2 ;we_en = ~csb & we & iclk
