Version 4
SHEET 1 1940 1352
WIRE 1264 -1104 304 -1104
WIRE 1312 -1104 1264 -1104
WIRE 1264 -1072 1264 -1104
WIRE 1056 -1024 304 -1024
WIRE 1168 -1024 1056 -1024
WIRE 1168 -960 1168 -1024
WIRE 1104 -928 1072 -928
WIRE 800 -912 304 -912
WIRE 960 -912 800 -912
WIRE 1376 -912 1232 -912
WIRE 1104 -896 1024 -896
WIRE 1600 -896 1440 -896
WIRE 1712 -896 1664 -896
WIRE 960 -880 768 -880
WIRE 1312 -880 1312 -1104
WIRE 1376 -880 1312 -880
WIRE 1056 -784 1056 -1024
WIRE 1376 -784 1056 -784
WIRE 800 -768 800 -912
WIRE 848 -768 800 -768
WIRE 960 -768 912 -768
WIRE 1376 -752 1024 -752
WIRE 1600 -752 1440 -752
WIRE 1712 -752 1664 -752
WIRE 768 -736 768 -880
WIRE 912 -736 768 -736
WIRE 960 -736 912 -736
WIRE 1072 -720 1072 -928
WIRE 1264 -720 1264 -1008
WIRE 1376 -720 1264 -720
WIRE 1072 -624 1072 -656
WIRE 1312 -560 1312 -880
WIRE 1376 -560 1312 -560
WIRE 656 -544 304 -544
WIRE 704 -544 656 -544
WIRE 816 -544 768 -544
WIRE 912 -528 912 -736
WIRE 912 -528 880 -528
WIRE 1376 -528 912 -528
WIRE 1600 -528 1440 -528
WIRE 1712 -528 1664 -528
WIRE 656 -512 656 -544
WIRE 816 -512 656 -512
WIRE 1072 -496 1072 -560
WIRE 1376 -496 1072 -496
WIRE 1056 -432 1056 -784
WIRE 1056 -320 1056 -368
WIRE 1072 -320 1072 -496
WIRE 1072 -320 1056 -320
WIRE 1376 -320 1072 -320
WIRE 1600 -304 1440 -304
WIRE 1712 -304 1664 -304
WIRE 1312 -288 1312 -560
WIRE 1376 -288 1312 -288
FLAG 304 -544 clk
IOPIN 304 -544 In
FLAG 304 -1024 we
IOPIN 304 -1024 In
FLAG 304 -1104 csb
IOPIN 304 -1104 In
FLAG 304 -912 rbl
IOPIN 304 -912 In
FLAG 1712 -752 sa_en
IOPIN 1712 -752 Out
FLAG 1712 -896 wl_en
IOPIN 1712 -896 Out
FLAG 1712 -528 p_bar_en
IOPIN 1712 -528 Out
FLAG 1712 -304 we_en
IOPIN 1712 -304 Out
SYMBOL and2 992 -896 R0
SYMATTR InstName X11
SYMBOL and2 992 -752 R0
SYMATTR InstName X14
SYMBOL inv 880 -768 R0
SYMATTR InstName X15
SYMBOL delay_chain 736 -544 R0
SYMATTR InstName X16
SYMBOL sel21 1168 -896 R0
SYMATTR InstName X24
SYMBOL nand2 848 -528 R0
SYMATTR InstName X2
SYMBOL inv 1056 -400 R90
SYMATTR InstName X13
SYMBOL inv_power 1632 -896 R0
SYMATTR InstName X18
SYMBOL nor2 1408 -896 R0
SYMATTR InstName X19
SYMBOL inv_power 1632 -752 R0
SYMATTR InstName X3
SYMBOL inv_power 1632 -304 R0
SYMATTR InstName X6
SYMBOL nor2 1408 -304 R0
SYMATTR InstName X20
SYMBOL inv 1264 -1040 R90
SYMATTR InstName X7
SYMBOL nand3 1408 -752 R0
SYMATTR InstName X4
SYMBOL nor3 1408 -528 R0
SYMATTR InstName X1
SYMBOL inv_ppower 1632 -528 R0
SYMATTR InstName X5
SYMBOL delay_chain 1072 -592 R270
SYMATTR InstName X8
SYMBOL inv 1072 -688 R270
SYMATTR InstName X9
TEXT 904 -504 Left 2 ;(0)
