Version 4
SHEET 1 880 680
WIRE 128 -48 -48 -48
WIRE 288 -48 192 -48
WIRE 320 -48 288 -48
WIRE 160 48 160 32
WIRE 160 64 160 48
WIRE 96 112 -48 112
WIRE 288 112 224 112
WIRE 160 176 160 160
WIRE 160 192 160 176
WIRE 160 256 160 240
WIRE 160 272 160 256
WIRE 96 320 -48 320
WIRE 288 320 224 320
WIRE 160 400 160 368
FLAG -48 112 in0
IOPIN -48 112 In
FLAG -48 320 in1
IOPIN -48 320 In
FLAG -48 -48 s
IOPIN -48 -48 In
FLAG 288 -48 sb
FLAG 288 112 out
IOPIN 288 112 Out
FLAG 288 320 out
IOPIN 288 320 Out
FLAG 160 256 s
FLAG 160 176 s
FLAG 160 48 sb
FLAG 160 400 sb
SYMBOL tri_gate 160 112 R0
SYMATTR InstName X1
SYMBOL tri_gate 160 320 R0
SYMATTR InstName X2
SYMBOL inv 160 -48 R0
SYMATTR InstName X3
